*SPEF "ieee 1481-1999"
*DESIGN "seq_detector_0011"
*DATE "08:57:36 Tuesday April 21, 2026"
*VENDOR "The OpenROAD Project"
*PROGRAM "OpenROAD"
*VERSION "26Q2-339-g0504146ce6"
*DESIGN_FLOW "NAME_SCOPE LOCAL" "PIN_CAP NONE"
*DIVIDER /
*DELIMITER :
*BUS_DELIMITER []
*T_UNIT 1 NS
*C_UNIT 1 PF
*R_UNIT 1 OHM
*L_UNIT 1 HENRY

*NAME_MAP
*1 _00_
*2 _01_
*3 _02_\[0\]
*4 _02_\[1\]
*5 _02_\[2\]
*6 _2_
*7 clk
*8 net1
*9 detect_pending
*10 net3
*11 history\[0\]
*12 history\[1\]
*13 history\[2\]
*14 net2
*17 data_in
*18 reset
*19 detected
*20 clknet_0_clk
*21 clknet_1_0__leaf_clk
*22 clknet_1_1__leaf_clk
*23 _3_
*24 _4_
*25 _5_
*26 _6_
*27 _7_
*28 _8_
*29 detect_pending\$_DFF_P_
*30 detected\$_DFF_P_
*31 history\[0\]\$_DFF_P_
*32 history\[1\]\$_DFF_P_
*33 history\[2\]\$_DFF_P_
*34 TAP_TAPCELL_ROW_0_0
*35 TAP_TAPCELL_ROW_0_1
*36 TAP_TAPCELL_ROW_0_2
*37 TAP_TAPCELL_ROW_0_3
*38 TAP_TAPCELL_ROW_0_4
*39 TAP_TAPCELL_ROW_0_5
*40 TAP_TAPCELL_ROW_0_6
*41 TAP_TAPCELL_ROW_0_7
*42 TAP_TAPCELL_ROW_0_8
*43 TAP_TAPCELL_ROW_0_9
*44 TAP_TAPCELL_ROW_0_10
*45 TAP_TAPCELL_ROW_0_11
*46 TAP_TAPCELL_ROW_0_12
*47 TAP_TAPCELL_ROW_1_13
*48 TAP_TAPCELL_ROW_1_14
*49 TAP_TAPCELL_ROW_1_15
*50 TAP_TAPCELL_ROW_1_16
*51 TAP_TAPCELL_ROW_1_17
*52 TAP_TAPCELL_ROW_1_18
*53 TAP_TAPCELL_ROW_2_19
*54 TAP_TAPCELL_ROW_2_20
*55 TAP_TAPCELL_ROW_2_21
*56 TAP_TAPCELL_ROW_2_22
*57 TAP_TAPCELL_ROW_2_23
*58 TAP_TAPCELL_ROW_2_24
*59 TAP_TAPCELL_ROW_2_25
*60 TAP_TAPCELL_ROW_3_26
*61 TAP_TAPCELL_ROW_3_27
*62 TAP_TAPCELL_ROW_3_28
*63 TAP_TAPCELL_ROW_3_29
*64 TAP_TAPCELL_ROW_3_30
*65 TAP_TAPCELL_ROW_3_31
*66 TAP_TAPCELL_ROW_4_32
*67 TAP_TAPCELL_ROW_4_33
*68 TAP_TAPCELL_ROW_4_34
*69 TAP_TAPCELL_ROW_4_35
*70 TAP_TAPCELL_ROW_4_36
*71 TAP_TAPCELL_ROW_4_37
*72 TAP_TAPCELL_ROW_4_38
*73 TAP_TAPCELL_ROW_5_39
*74 TAP_TAPCELL_ROW_5_40
*75 TAP_TAPCELL_ROW_5_41
*76 TAP_TAPCELL_ROW_5_42
*77 TAP_TAPCELL_ROW_5_43
*78 TAP_TAPCELL_ROW_5_44
*79 TAP_TAPCELL_ROW_6_45
*80 TAP_TAPCELL_ROW_6_46
*81 TAP_TAPCELL_ROW_6_47
*82 TAP_TAPCELL_ROW_6_48
*83 TAP_TAPCELL_ROW_6_49
*84 TAP_TAPCELL_ROW_6_50
*85 TAP_TAPCELL_ROW_6_51
*86 TAP_TAPCELL_ROW_7_52
*87 TAP_TAPCELL_ROW_7_53
*88 TAP_TAPCELL_ROW_7_54
*89 TAP_TAPCELL_ROW_7_55
*90 TAP_TAPCELL_ROW_7_56
*91 TAP_TAPCELL_ROW_7_57
*92 TAP_TAPCELL_ROW_8_58
*93 TAP_TAPCELL_ROW_8_59
*94 TAP_TAPCELL_ROW_8_60
*95 TAP_TAPCELL_ROW_8_61
*96 TAP_TAPCELL_ROW_8_62
*97 TAP_TAPCELL_ROW_8_63
*98 TAP_TAPCELL_ROW_8_64
*99 TAP_TAPCELL_ROW_9_65
*100 TAP_TAPCELL_ROW_9_66
*101 TAP_TAPCELL_ROW_9_67
*102 TAP_TAPCELL_ROW_9_68
*103 TAP_TAPCELL_ROW_9_69
*104 TAP_TAPCELL_ROW_9_70
*105 TAP_TAPCELL_ROW_10_71
*106 TAP_TAPCELL_ROW_10_72
*107 TAP_TAPCELL_ROW_10_73
*108 TAP_TAPCELL_ROW_10_74
*109 TAP_TAPCELL_ROW_10_75
*110 TAP_TAPCELL_ROW_10_76
*111 TAP_TAPCELL_ROW_10_77
*112 TAP_TAPCELL_ROW_11_78
*113 TAP_TAPCELL_ROW_11_79
*114 TAP_TAPCELL_ROW_11_80
*115 TAP_TAPCELL_ROW_11_81
*116 TAP_TAPCELL_ROW_11_82
*117 TAP_TAPCELL_ROW_11_83
*118 TAP_TAPCELL_ROW_12_84
*119 TAP_TAPCELL_ROW_12_85
*120 TAP_TAPCELL_ROW_12_86
*121 TAP_TAPCELL_ROW_12_87
*122 TAP_TAPCELL_ROW_12_88
*123 TAP_TAPCELL_ROW_12_89
*124 TAP_TAPCELL_ROW_12_90
*125 TAP_TAPCELL_ROW_13_91
*126 TAP_TAPCELL_ROW_13_92
*127 TAP_TAPCELL_ROW_13_93
*128 TAP_TAPCELL_ROW_13_94
*129 TAP_TAPCELL_ROW_13_95
*130 TAP_TAPCELL_ROW_13_96
*131 TAP_TAPCELL_ROW_14_97
*132 TAP_TAPCELL_ROW_14_98
*133 TAP_TAPCELL_ROW_14_99
*134 TAP_TAPCELL_ROW_14_100
*135 TAP_TAPCELL_ROW_14_101
*136 TAP_TAPCELL_ROW_14_102
*137 TAP_TAPCELL_ROW_14_103
*138 TAP_TAPCELL_ROW_15_104
*139 TAP_TAPCELL_ROW_15_105
*140 TAP_TAPCELL_ROW_15_106
*141 TAP_TAPCELL_ROW_15_107
*142 TAP_TAPCELL_ROW_15_108
*143 TAP_TAPCELL_ROW_15_109
*144 TAP_TAPCELL_ROW_16_110
*145 TAP_TAPCELL_ROW_16_111
*146 TAP_TAPCELL_ROW_16_112
*147 TAP_TAPCELL_ROW_16_113
*148 TAP_TAPCELL_ROW_16_114
*149 TAP_TAPCELL_ROW_16_115
*150 TAP_TAPCELL_ROW_16_116
*151 TAP_TAPCELL_ROW_17_117
*152 TAP_TAPCELL_ROW_17_118
*153 TAP_TAPCELL_ROW_17_119
*154 TAP_TAPCELL_ROW_17_120
*155 TAP_TAPCELL_ROW_17_121
*156 TAP_TAPCELL_ROW_17_122
*157 TAP_TAPCELL_ROW_18_123
*158 TAP_TAPCELL_ROW_18_124
*159 TAP_TAPCELL_ROW_18_125
*160 TAP_TAPCELL_ROW_18_126
*161 TAP_TAPCELL_ROW_18_127
*162 TAP_TAPCELL_ROW_18_128
*163 TAP_TAPCELL_ROW_18_129
*164 TAP_TAPCELL_ROW_19_130
*165 TAP_TAPCELL_ROW_19_131
*166 TAP_TAPCELL_ROW_19_132
*167 TAP_TAPCELL_ROW_19_133
*168 TAP_TAPCELL_ROW_19_134
*169 TAP_TAPCELL_ROW_19_135
*170 TAP_TAPCELL_ROW_20_136
*171 TAP_TAPCELL_ROW_20_137
*172 TAP_TAPCELL_ROW_20_138
*173 TAP_TAPCELL_ROW_20_139
*174 TAP_TAPCELL_ROW_20_140
*175 TAP_TAPCELL_ROW_20_141
*176 TAP_TAPCELL_ROW_20_142
*177 TAP_TAPCELL_ROW_21_143
*178 TAP_TAPCELL_ROW_21_144
*179 TAP_TAPCELL_ROW_21_145
*180 TAP_TAPCELL_ROW_21_146
*181 TAP_TAPCELL_ROW_21_147
*182 TAP_TAPCELL_ROW_21_148
*183 TAP_TAPCELL_ROW_22_149
*184 TAP_TAPCELL_ROW_22_150
*185 TAP_TAPCELL_ROW_22_151
*186 TAP_TAPCELL_ROW_22_152
*187 TAP_TAPCELL_ROW_22_153
*188 TAP_TAPCELL_ROW_22_154
*189 TAP_TAPCELL_ROW_22_155
*190 TAP_TAPCELL_ROW_23_156
*191 TAP_TAPCELL_ROW_23_157
*192 TAP_TAPCELL_ROW_23_158
*193 TAP_TAPCELL_ROW_23_159
*194 TAP_TAPCELL_ROW_23_160
*195 TAP_TAPCELL_ROW_23_161
*196 TAP_TAPCELL_ROW_24_162
*197 TAP_TAPCELL_ROW_24_163
*198 TAP_TAPCELL_ROW_24_164
*199 TAP_TAPCELL_ROW_24_165
*200 TAP_TAPCELL_ROW_24_166
*201 TAP_TAPCELL_ROW_24_167
*202 TAP_TAPCELL_ROW_24_168
*203 TAP_TAPCELL_ROW_25_169
*204 TAP_TAPCELL_ROW_25_170
*205 TAP_TAPCELL_ROW_25_171
*206 TAP_TAPCELL_ROW_25_172
*207 TAP_TAPCELL_ROW_25_173
*208 TAP_TAPCELL_ROW_25_174
*209 TAP_TAPCELL_ROW_26_175
*210 TAP_TAPCELL_ROW_26_176
*211 TAP_TAPCELL_ROW_26_177
*212 TAP_TAPCELL_ROW_26_178
*213 TAP_TAPCELL_ROW_26_179
*214 TAP_TAPCELL_ROW_26_180
*215 TAP_TAPCELL_ROW_26_181
*216 TAP_TAPCELL_ROW_27_182
*217 TAP_TAPCELL_ROW_27_183
*218 TAP_TAPCELL_ROW_27_184
*219 TAP_TAPCELL_ROW_27_185
*220 TAP_TAPCELL_ROW_27_186
*221 TAP_TAPCELL_ROW_27_187
*222 TAP_TAPCELL_ROW_28_188
*223 TAP_TAPCELL_ROW_28_189
*224 TAP_TAPCELL_ROW_28_190
*225 TAP_TAPCELL_ROW_28_191
*226 TAP_TAPCELL_ROW_28_192
*227 TAP_TAPCELL_ROW_28_193
*228 TAP_TAPCELL_ROW_28_194
*229 TAP_TAPCELL_ROW_29_195
*230 TAP_TAPCELL_ROW_29_196
*231 TAP_TAPCELL_ROW_29_197
*232 TAP_TAPCELL_ROW_29_198
*233 TAP_TAPCELL_ROW_29_199
*234 TAP_TAPCELL_ROW_29_200
*235 TAP_TAPCELL_ROW_30_201
*236 TAP_TAPCELL_ROW_30_202
*237 TAP_TAPCELL_ROW_30_203
*238 TAP_TAPCELL_ROW_30_204
*239 TAP_TAPCELL_ROW_30_205
*240 TAP_TAPCELL_ROW_30_206
*241 TAP_TAPCELL_ROW_30_207
*242 TAP_TAPCELL_ROW_31_208
*243 TAP_TAPCELL_ROW_31_209
*244 TAP_TAPCELL_ROW_31_210
*245 TAP_TAPCELL_ROW_31_211
*246 TAP_TAPCELL_ROW_31_212
*247 TAP_TAPCELL_ROW_31_213
*248 TAP_TAPCELL_ROW_32_214
*249 TAP_TAPCELL_ROW_32_215
*250 TAP_TAPCELL_ROW_32_216
*251 TAP_TAPCELL_ROW_32_217
*252 TAP_TAPCELL_ROW_32_218
*253 TAP_TAPCELL_ROW_32_219
*254 TAP_TAPCELL_ROW_32_220
*255 TAP_TAPCELL_ROW_33_221
*256 TAP_TAPCELL_ROW_33_222
*257 TAP_TAPCELL_ROW_33_223
*258 TAP_TAPCELL_ROW_33_224
*259 TAP_TAPCELL_ROW_33_225
*260 TAP_TAPCELL_ROW_33_226
*261 TAP_TAPCELL_ROW_34_227
*262 TAP_TAPCELL_ROW_34_228
*263 TAP_TAPCELL_ROW_34_229
*264 TAP_TAPCELL_ROW_34_230
*265 TAP_TAPCELL_ROW_34_231
*266 TAP_TAPCELL_ROW_34_232
*267 TAP_TAPCELL_ROW_34_233
*268 TAP_TAPCELL_ROW_35_234
*269 TAP_TAPCELL_ROW_35_235
*270 TAP_TAPCELL_ROW_35_236
*271 TAP_TAPCELL_ROW_35_237
*272 TAP_TAPCELL_ROW_35_238
*273 TAP_TAPCELL_ROW_35_239
*274 TAP_TAPCELL_ROW_36_240
*275 TAP_TAPCELL_ROW_36_241
*276 TAP_TAPCELL_ROW_36_242
*277 TAP_TAPCELL_ROW_36_243
*278 TAP_TAPCELL_ROW_36_244
*279 TAP_TAPCELL_ROW_36_245
*280 TAP_TAPCELL_ROW_36_246
*281 TAP_TAPCELL_ROW_37_247
*282 TAP_TAPCELL_ROW_37_248
*283 TAP_TAPCELL_ROW_37_249
*284 TAP_TAPCELL_ROW_37_250
*285 TAP_TAPCELL_ROW_37_251
*286 TAP_TAPCELL_ROW_37_252
*287 TAP_TAPCELL_ROW_38_253
*288 TAP_TAPCELL_ROW_38_254
*289 TAP_TAPCELL_ROW_38_255
*290 TAP_TAPCELL_ROW_38_256
*291 TAP_TAPCELL_ROW_38_257
*292 TAP_TAPCELL_ROW_38_258
*293 TAP_TAPCELL_ROW_38_259
*294 TAP_TAPCELL_ROW_39_260
*295 TAP_TAPCELL_ROW_39_261
*296 TAP_TAPCELL_ROW_39_262
*297 TAP_TAPCELL_ROW_39_263
*298 TAP_TAPCELL_ROW_39_264
*299 TAP_TAPCELL_ROW_39_265
*300 TAP_TAPCELL_ROW_40_266
*301 TAP_TAPCELL_ROW_40_267
*302 TAP_TAPCELL_ROW_40_268
*303 TAP_TAPCELL_ROW_40_269
*304 TAP_TAPCELL_ROW_40_270
*305 TAP_TAPCELL_ROW_40_271
*306 TAP_TAPCELL_ROW_40_272
*307 TAP_TAPCELL_ROW_41_273
*308 TAP_TAPCELL_ROW_41_274
*309 TAP_TAPCELL_ROW_41_275
*310 TAP_TAPCELL_ROW_41_276
*311 TAP_TAPCELL_ROW_41_277
*312 TAP_TAPCELL_ROW_41_278
*313 TAP_TAPCELL_ROW_42_279
*314 TAP_TAPCELL_ROW_42_280
*315 TAP_TAPCELL_ROW_42_281
*316 TAP_TAPCELL_ROW_42_282
*317 TAP_TAPCELL_ROW_42_283
*318 TAP_TAPCELL_ROW_42_284
*319 TAP_TAPCELL_ROW_42_285
*320 TAP_TAPCELL_ROW_43_286
*321 TAP_TAPCELL_ROW_43_287
*322 TAP_TAPCELL_ROW_43_288
*323 TAP_TAPCELL_ROW_43_289
*324 TAP_TAPCELL_ROW_43_290
*325 TAP_TAPCELL_ROW_43_291
*326 TAP_TAPCELL_ROW_44_292
*327 TAP_TAPCELL_ROW_44_293
*328 TAP_TAPCELL_ROW_44_294
*329 TAP_TAPCELL_ROW_44_295
*330 TAP_TAPCELL_ROW_44_296
*331 TAP_TAPCELL_ROW_44_297
*332 TAP_TAPCELL_ROW_44_298
*333 TAP_TAPCELL_ROW_45_299
*334 TAP_TAPCELL_ROW_45_300
*335 TAP_TAPCELL_ROW_45_301
*336 TAP_TAPCELL_ROW_45_302
*337 TAP_TAPCELL_ROW_45_303
*338 TAP_TAPCELL_ROW_45_304
*339 TAP_TAPCELL_ROW_46_305
*340 TAP_TAPCELL_ROW_46_306
*341 TAP_TAPCELL_ROW_46_307
*342 TAP_TAPCELL_ROW_46_308
*343 TAP_TAPCELL_ROW_46_309
*344 TAP_TAPCELL_ROW_46_310
*345 TAP_TAPCELL_ROW_46_311
*346 TAP_TAPCELL_ROW_47_312
*347 TAP_TAPCELL_ROW_47_313
*348 TAP_TAPCELL_ROW_47_314
*349 TAP_TAPCELL_ROW_47_315
*350 TAP_TAPCELL_ROW_47_316
*351 TAP_TAPCELL_ROW_47_317
*352 TAP_TAPCELL_ROW_48_318
*353 TAP_TAPCELL_ROW_48_319
*354 TAP_TAPCELL_ROW_48_320
*355 TAP_TAPCELL_ROW_48_321
*356 TAP_TAPCELL_ROW_48_322
*357 TAP_TAPCELL_ROW_48_323
*358 TAP_TAPCELL_ROW_48_324
*359 TAP_TAPCELL_ROW_49_325
*360 TAP_TAPCELL_ROW_49_326
*361 TAP_TAPCELL_ROW_49_327
*362 TAP_TAPCELL_ROW_49_328
*363 TAP_TAPCELL_ROW_49_329
*364 TAP_TAPCELL_ROW_49_330
*365 TAP_TAPCELL_ROW_50_331
*366 TAP_TAPCELL_ROW_50_332
*367 TAP_TAPCELL_ROW_50_333
*368 TAP_TAPCELL_ROW_50_334
*369 TAP_TAPCELL_ROW_50_335
*370 TAP_TAPCELL_ROW_50_336
*371 TAP_TAPCELL_ROW_50_337
*372 TAP_TAPCELL_ROW_51_338
*373 TAP_TAPCELL_ROW_51_339
*374 TAP_TAPCELL_ROW_51_340
*375 TAP_TAPCELL_ROW_51_341
*376 TAP_TAPCELL_ROW_51_342
*377 TAP_TAPCELL_ROW_51_343
*378 TAP_TAPCELL_ROW_52_344
*379 TAP_TAPCELL_ROW_52_345
*380 TAP_TAPCELL_ROW_52_346
*381 TAP_TAPCELL_ROW_52_347
*382 TAP_TAPCELL_ROW_52_348
*383 TAP_TAPCELL_ROW_52_349
*384 TAP_TAPCELL_ROW_52_350
*385 TAP_TAPCELL_ROW_53_351
*386 TAP_TAPCELL_ROW_53_352
*387 TAP_TAPCELL_ROW_53_353
*388 TAP_TAPCELL_ROW_53_354
*389 TAP_TAPCELL_ROW_53_355
*390 TAP_TAPCELL_ROW_53_356
*391 TAP_TAPCELL_ROW_54_357
*392 TAP_TAPCELL_ROW_54_358
*393 TAP_TAPCELL_ROW_54_359
*394 TAP_TAPCELL_ROW_54_360
*395 TAP_TAPCELL_ROW_54_361
*396 TAP_TAPCELL_ROW_54_362
*397 TAP_TAPCELL_ROW_54_363
*398 TAP_TAPCELL_ROW_55_364
*399 TAP_TAPCELL_ROW_55_365
*400 TAP_TAPCELL_ROW_55_366
*401 TAP_TAPCELL_ROW_55_367
*402 TAP_TAPCELL_ROW_55_368
*403 TAP_TAPCELL_ROW_55_369
*404 TAP_TAPCELL_ROW_56_370
*405 TAP_TAPCELL_ROW_56_371
*406 TAP_TAPCELL_ROW_56_372
*407 TAP_TAPCELL_ROW_56_373
*408 TAP_TAPCELL_ROW_56_374
*409 TAP_TAPCELL_ROW_56_375
*410 TAP_TAPCELL_ROW_56_376
*411 TAP_TAPCELL_ROW_57_377
*412 TAP_TAPCELL_ROW_57_378
*413 TAP_TAPCELL_ROW_57_379
*414 TAP_TAPCELL_ROW_57_380
*415 TAP_TAPCELL_ROW_57_381
*416 TAP_TAPCELL_ROW_57_382
*417 TAP_TAPCELL_ROW_58_383
*418 TAP_TAPCELL_ROW_58_384
*419 TAP_TAPCELL_ROW_58_385
*420 TAP_TAPCELL_ROW_58_386
*421 TAP_TAPCELL_ROW_58_387
*422 TAP_TAPCELL_ROW_58_388
*423 TAP_TAPCELL_ROW_58_389
*424 TAP_TAPCELL_ROW_59_390
*425 TAP_TAPCELL_ROW_59_391
*426 TAP_TAPCELL_ROW_59_392
*427 TAP_TAPCELL_ROW_59_393
*428 TAP_TAPCELL_ROW_59_394
*429 TAP_TAPCELL_ROW_59_395
*430 TAP_TAPCELL_ROW_60_396
*431 TAP_TAPCELL_ROW_60_397
*432 TAP_TAPCELL_ROW_60_398
*433 TAP_TAPCELL_ROW_60_399
*434 TAP_TAPCELL_ROW_60_400
*435 TAP_TAPCELL_ROW_60_401
*436 TAP_TAPCELL_ROW_60_402
*437 TAP_TAPCELL_ROW_61_403
*438 TAP_TAPCELL_ROW_61_404
*439 TAP_TAPCELL_ROW_61_405
*440 TAP_TAPCELL_ROW_61_406
*441 TAP_TAPCELL_ROW_61_407
*442 TAP_TAPCELL_ROW_61_408
*443 TAP_TAPCELL_ROW_62_409
*444 TAP_TAPCELL_ROW_62_410
*445 TAP_TAPCELL_ROW_62_411
*446 TAP_TAPCELL_ROW_62_412
*447 TAP_TAPCELL_ROW_62_413
*448 TAP_TAPCELL_ROW_62_414
*449 TAP_TAPCELL_ROW_62_415
*450 TAP_TAPCELL_ROW_63_416
*451 TAP_TAPCELL_ROW_63_417
*452 TAP_TAPCELL_ROW_63_418
*453 TAP_TAPCELL_ROW_63_419
*454 TAP_TAPCELL_ROW_63_420
*455 TAP_TAPCELL_ROW_63_421
*456 TAP_TAPCELL_ROW_64_422
*457 TAP_TAPCELL_ROW_64_423
*458 TAP_TAPCELL_ROW_64_424
*459 TAP_TAPCELL_ROW_64_425
*460 TAP_TAPCELL_ROW_64_426
*461 TAP_TAPCELL_ROW_64_427
*462 TAP_TAPCELL_ROW_64_428
*463 TAP_TAPCELL_ROW_64_429
*464 TAP_TAPCELL_ROW_64_430
*465 TAP_TAPCELL_ROW_64_431
*466 TAP_TAPCELL_ROW_64_432
*467 TAP_TAPCELL_ROW_64_433
*468 TAP_TAPCELL_ROW_64_434
*469 input1
*470 input2
*471 output3
*472 clkbuf_0_clk
*473 clkbuf_1_0__f_clk
*474 clkbuf_1_1__f_clk
*475 clkload0
*476 FILLER_0_0
*477 FILLER_0_8
*478 FILLER_0_16
*479 FILLER_0_24
*480 FILLER_0_28
*481 FILLER_0_31
*482 FILLER_0_39
*483 FILLER_0_47
*484 FILLER_0_55
*485 FILLER_0_59
*486 FILLER_0_61
*487 FILLER_0_69
*488 FILLER_0_77
*489 FILLER_0_85
*490 FILLER_0_89
*491 FILLER_0_91
*492 FILLER_0_99
*493 FILLER_0_107
*494 FILLER_0_115
*495 FILLER_0_119
*496 FILLER_0_121
*497 FILLER_0_129
*498 FILLER_0_137
*499 FILLER_0_145
*500 FILLER_0_149
*501 FILLER_0_151
*502 FILLER_0_159
*503 FILLER_0_167
*504 FILLER_0_175
*505 FILLER_0_179
*506 FILLER_0_181
*507 FILLER_0_189
*508 FILLER_0_197
*509 FILLER_0_205
*510 FILLER_0_209
*511 FILLER_0_211
*512 FILLER_0_219
*513 FILLER_0_227
*514 FILLER_0_235
*515 FILLER_0_239
*516 FILLER_0_241
*517 FILLER_0_249
*518 FILLER_0_257
*519 FILLER_0_265
*520 FILLER_0_269
*521 FILLER_0_271
*522 FILLER_0_279
*523 FILLER_0_287
*524 FILLER_0_295
*525 FILLER_0_299
*526 FILLER_0_301
*527 FILLER_0_309
*528 FILLER_0_317
*529 FILLER_0_325
*530 FILLER_0_329
*531 FILLER_0_331
*532 FILLER_0_339
*533 FILLER_0_347
*534 FILLER_0_355
*535 FILLER_0_359
*536 FILLER_0_361
*537 FILLER_0_369
*538 FILLER_0_377
*539 FILLER_0_385
*540 FILLER_0_389
*541 FILLER_1_0
*542 FILLER_1_8
*543 FILLER_1_16
*544 FILLER_1_24
*545 FILLER_1_32
*546 FILLER_1_40
*547 FILLER_1_48
*548 FILLER_1_56
*549 FILLER_1_61
*550 FILLER_1_69
*551 FILLER_1_77
*552 FILLER_1_85
*553 FILLER_1_93
*554 FILLER_1_101
*555 FILLER_1_109
*556 FILLER_1_117
*557 FILLER_1_119
*558 FILLER_1_121
*559 FILLER_1_129
*560 FILLER_1_137
*561 FILLER_1_145
*562 FILLER_1_153
*563 FILLER_1_161
*564 FILLER_1_169
*565 FILLER_1_177
*566 FILLER_1_179
*567 FILLER_1_181
*568 FILLER_1_189
*569 FILLER_1_197
*570 FILLER_1_205
*571 FILLER_1_213
*572 FILLER_1_221
*573 FILLER_1_229
*574 FILLER_1_237
*575 FILLER_1_239
*576 FILLER_1_241
*577 FILLER_1_249
*578 FILLER_1_257
*579 FILLER_1_265
*580 FILLER_1_273
*581 FILLER_1_281
*582 FILLER_1_289
*583 FILLER_1_297
*584 FILLER_1_299
*585 FILLER_1_301
*586 FILLER_1_309
*587 FILLER_1_317
*588 FILLER_1_325
*589 FILLER_1_333
*590 FILLER_1_341
*591 FILLER_1_349
*592 FILLER_1_357
*593 FILLER_1_359
*594 FILLER_1_361
*595 FILLER_1_369
*596 FILLER_1_377
*597 FILLER_1_385
*598 FILLER_1_389
*599 FILLER_2_0
*600 FILLER_2_8
*601 FILLER_2_16
*602 FILLER_2_24
*603 FILLER_2_28
*604 FILLER_2_31
*605 FILLER_2_39
*606 FILLER_2_47
*607 FILLER_2_55
*608 FILLER_2_63
*609 FILLER_2_71
*610 FILLER_2_79
*611 FILLER_2_87
*612 FILLER_2_89
*613 FILLER_2_91
*614 FILLER_2_99
*615 FILLER_2_107
*616 FILLER_2_115
*617 FILLER_2_123
*618 FILLER_2_131
*619 FILLER_2_139
*620 FILLER_2_147
*621 FILLER_2_149
*622 FILLER_2_151
*623 FILLER_2_159
*624 FILLER_2_167
*625 FILLER_2_175
*626 FILLER_2_183
*627 FILLER_2_191
*628 FILLER_2_199
*629 FILLER_2_207
*630 FILLER_2_209
*631 FILLER_2_211
*632 FILLER_2_219
*633 FILLER_2_227
*634 FILLER_2_235
*635 FILLER_2_243
*636 FILLER_2_251
*637 FILLER_2_259
*638 FILLER_2_267
*639 FILLER_2_269
*640 FILLER_2_271
*641 FILLER_2_279
*642 FILLER_2_287
*643 FILLER_2_295
*644 FILLER_2_303
*645 FILLER_2_311
*646 FILLER_2_319
*647 FILLER_2_327
*648 FILLER_2_329
*649 FILLER_2_331
*650 FILLER_2_339
*651 FILLER_2_347
*652 FILLER_2_355
*653 FILLER_2_363
*654 FILLER_2_371
*655 FILLER_2_379
*656 FILLER_2_387
*657 FILLER_2_389
*658 FILLER_3_0
*659 FILLER_3_8
*660 FILLER_3_16
*661 FILLER_3_24
*662 FILLER_3_32
*663 FILLER_3_40
*664 FILLER_3_48
*665 FILLER_3_56
*666 FILLER_3_61
*667 FILLER_3_69
*668 FILLER_3_77
*669 FILLER_3_85
*670 FILLER_3_93
*671 FILLER_3_101
*672 FILLER_3_109
*673 FILLER_3_117
*674 FILLER_3_119
*675 FILLER_3_121
*676 FILLER_3_129
*677 FILLER_3_137
*678 FILLER_3_145
*679 FILLER_3_153
*680 FILLER_3_161
*681 FILLER_3_169
*682 FILLER_3_177
*683 FILLER_3_179
*684 FILLER_3_181
*685 FILLER_3_189
*686 FILLER_3_197
*687 FILLER_3_205
*688 FILLER_3_213
*689 FILLER_3_221
*690 FILLER_3_229
*691 FILLER_3_237
*692 FILLER_3_239
*693 FILLER_3_241
*694 FILLER_3_249
*695 FILLER_3_257
*696 FILLER_3_265
*697 FILLER_3_273
*698 FILLER_3_281
*699 FILLER_3_289
*700 FILLER_3_297
*701 FILLER_3_299
*702 FILLER_3_301
*703 FILLER_3_309
*704 FILLER_3_317
*705 FILLER_3_325
*706 FILLER_3_333
*707 FILLER_3_341
*708 FILLER_3_349
*709 FILLER_3_357
*710 FILLER_3_359
*711 FILLER_3_361
*712 FILLER_3_369
*713 FILLER_3_377
*714 FILLER_3_385
*715 FILLER_3_389
*716 FILLER_4_0
*717 FILLER_4_8
*718 FILLER_4_16
*719 FILLER_4_24
*720 FILLER_4_28
*721 FILLER_4_31
*722 FILLER_4_39
*723 FILLER_4_47
*724 FILLER_4_55
*725 FILLER_4_63
*726 FILLER_4_71
*727 FILLER_4_79
*728 FILLER_4_87
*729 FILLER_4_89
*730 FILLER_4_91
*731 FILLER_4_99
*732 FILLER_4_107
*733 FILLER_4_115
*734 FILLER_4_123
*735 FILLER_4_131
*736 FILLER_4_139
*737 FILLER_4_147
*738 FILLER_4_149
*739 FILLER_4_151
*740 FILLER_4_159
*741 FILLER_4_167
*742 FILLER_4_175
*743 FILLER_4_183
*744 FILLER_4_191
*745 FILLER_4_199
*746 FILLER_4_207
*747 FILLER_4_209
*748 FILLER_4_211
*749 FILLER_4_219
*750 FILLER_4_227
*751 FILLER_4_235
*752 FILLER_4_243
*753 FILLER_4_251
*754 FILLER_4_259
*755 FILLER_4_267
*756 FILLER_4_269
*757 FILLER_4_271
*758 FILLER_4_279
*759 FILLER_4_287
*760 FILLER_4_295
*761 FILLER_4_303
*762 FILLER_4_311
*763 FILLER_4_319
*764 FILLER_4_327
*765 FILLER_4_329
*766 FILLER_4_331
*767 FILLER_4_339
*768 FILLER_4_347
*769 FILLER_4_355
*770 FILLER_4_363
*771 FILLER_4_371
*772 FILLER_4_379
*773 FILLER_4_387
*774 FILLER_4_389
*775 FILLER_5_0
*776 FILLER_5_8
*777 FILLER_5_16
*778 FILLER_5_24
*779 FILLER_5_32
*780 FILLER_5_40
*781 FILLER_5_48
*782 FILLER_5_56
*783 FILLER_5_61
*784 FILLER_5_69
*785 FILLER_5_77
*786 FILLER_5_85
*787 FILLER_5_93
*788 FILLER_5_101
*789 FILLER_5_109
*790 FILLER_5_117
*791 FILLER_5_119
*792 FILLER_5_121
*793 FILLER_5_129
*794 FILLER_5_137
*795 FILLER_5_145
*796 FILLER_5_153
*797 FILLER_5_161
*798 FILLER_5_169
*799 FILLER_5_177
*800 FILLER_5_179
*801 FILLER_5_181
*802 FILLER_5_189
*803 FILLER_5_197
*804 FILLER_5_205
*805 FILLER_5_213
*806 FILLER_5_221
*807 FILLER_5_229
*808 FILLER_5_237
*809 FILLER_5_239
*810 FILLER_5_241
*811 FILLER_5_249
*812 FILLER_5_257
*813 FILLER_5_265
*814 FILLER_5_273
*815 FILLER_5_281
*816 FILLER_5_289
*817 FILLER_5_297
*818 FILLER_5_299
*819 FILLER_5_301
*820 FILLER_5_309
*821 FILLER_5_317
*822 FILLER_5_325
*823 FILLER_5_333
*824 FILLER_5_341
*825 FILLER_5_349
*826 FILLER_5_357
*827 FILLER_5_359
*828 FILLER_5_361
*829 FILLER_5_369
*830 FILLER_5_377
*831 FILLER_5_385
*832 FILLER_5_389
*833 FILLER_6_0
*834 FILLER_6_8
*835 FILLER_6_16
*836 FILLER_6_24
*837 FILLER_6_28
*838 FILLER_6_31
*839 FILLER_6_39
*840 FILLER_6_47
*841 FILLER_6_55
*842 FILLER_6_63
*843 FILLER_6_71
*844 FILLER_6_79
*845 FILLER_6_87
*846 FILLER_6_89
*847 FILLER_6_91
*848 FILLER_6_99
*849 FILLER_6_107
*850 FILLER_6_115
*851 FILLER_6_123
*852 FILLER_6_131
*853 FILLER_6_139
*854 FILLER_6_147
*855 FILLER_6_149
*856 FILLER_6_151
*857 FILLER_6_159
*858 FILLER_6_167
*859 FILLER_6_175
*860 FILLER_6_183
*861 FILLER_6_191
*862 FILLER_6_199
*863 FILLER_6_207
*864 FILLER_6_209
*865 FILLER_6_211
*866 FILLER_6_219
*867 FILLER_6_227
*868 FILLER_6_235
*869 FILLER_6_243
*870 FILLER_6_251
*871 FILLER_6_259
*872 FILLER_6_267
*873 FILLER_6_269
*874 FILLER_6_271
*875 FILLER_6_279
*876 FILLER_6_287
*877 FILLER_6_295
*878 FILLER_6_303
*879 FILLER_6_311
*880 FILLER_6_319
*881 FILLER_6_327
*882 FILLER_6_329
*883 FILLER_6_331
*884 FILLER_6_339
*885 FILLER_6_347
*886 FILLER_6_355
*887 FILLER_6_363
*888 FILLER_6_371
*889 FILLER_6_379
*890 FILLER_6_387
*891 FILLER_6_389
*892 FILLER_7_0
*893 FILLER_7_8
*894 FILLER_7_16
*895 FILLER_7_24
*896 FILLER_7_32
*897 FILLER_7_40
*898 FILLER_7_48
*899 FILLER_7_56
*900 FILLER_7_61
*901 FILLER_7_69
*902 FILLER_7_77
*903 FILLER_7_85
*904 FILLER_7_93
*905 FILLER_7_101
*906 FILLER_7_109
*907 FILLER_7_117
*908 FILLER_7_119
*909 FILLER_7_121
*910 FILLER_7_129
*911 FILLER_7_137
*912 FILLER_7_145
*913 FILLER_7_153
*914 FILLER_7_161
*915 FILLER_7_169
*916 FILLER_7_177
*917 FILLER_7_179
*918 FILLER_7_181
*919 FILLER_7_189
*920 FILLER_7_197
*921 FILLER_7_205
*922 FILLER_7_213
*923 FILLER_7_221
*924 FILLER_7_229
*925 FILLER_7_237
*926 FILLER_7_239
*927 FILLER_7_241
*928 FILLER_7_249
*929 FILLER_7_257
*930 FILLER_7_265
*931 FILLER_7_273
*932 FILLER_7_281
*933 FILLER_7_289
*934 FILLER_7_297
*935 FILLER_7_299
*936 FILLER_7_301
*937 FILLER_7_309
*938 FILLER_7_317
*939 FILLER_7_325
*940 FILLER_7_333
*941 FILLER_7_341
*942 FILLER_7_349
*943 FILLER_7_357
*944 FILLER_7_359
*945 FILLER_7_361
*946 FILLER_7_369
*947 FILLER_7_377
*948 FILLER_7_385
*949 FILLER_7_389
*950 FILLER_8_0
*951 FILLER_8_8
*952 FILLER_8_16
*953 FILLER_8_24
*954 FILLER_8_28
*955 FILLER_8_31
*956 FILLER_8_39
*957 FILLER_8_47
*958 FILLER_8_55
*959 FILLER_8_63
*960 FILLER_8_71
*961 FILLER_8_79
*962 FILLER_8_87
*963 FILLER_8_89
*964 FILLER_8_91
*965 FILLER_8_99
*966 FILLER_8_107
*967 FILLER_8_115
*968 FILLER_8_123
*969 FILLER_8_131
*970 FILLER_8_139
*971 FILLER_8_147
*972 FILLER_8_149
*973 FILLER_8_151
*974 FILLER_8_159
*975 FILLER_8_167
*976 FILLER_8_175
*977 FILLER_8_183
*978 FILLER_8_191
*979 FILLER_8_199
*980 FILLER_8_207
*981 FILLER_8_209
*982 FILLER_8_211
*983 FILLER_8_219
*984 FILLER_8_227
*985 FILLER_8_235
*986 FILLER_8_243
*987 FILLER_8_251
*988 FILLER_8_259
*989 FILLER_8_267
*990 FILLER_8_269
*991 FILLER_8_271
*992 FILLER_8_279
*993 FILLER_8_287
*994 FILLER_8_295
*995 FILLER_8_303
*996 FILLER_8_311
*997 FILLER_8_319
*998 FILLER_8_327
*999 FILLER_8_329
*1000 FILLER_8_331
*1001 FILLER_8_339
*1002 FILLER_8_347
*1003 FILLER_8_355
*1004 FILLER_8_363
*1005 FILLER_8_371
*1006 FILLER_8_379
*1007 FILLER_8_387
*1008 FILLER_8_389
*1009 FILLER_9_0
*1010 FILLER_9_8
*1011 FILLER_9_16
*1012 FILLER_9_24
*1013 FILLER_9_32
*1014 FILLER_9_40
*1015 FILLER_9_48
*1016 FILLER_9_56
*1017 FILLER_9_61
*1018 FILLER_9_69
*1019 FILLER_9_77
*1020 FILLER_9_85
*1021 FILLER_9_93
*1022 FILLER_9_101
*1023 FILLER_9_109
*1024 FILLER_9_117
*1025 FILLER_9_119
*1026 FILLER_9_121
*1027 FILLER_9_129
*1028 FILLER_9_137
*1029 FILLER_9_145
*1030 FILLER_9_153
*1031 FILLER_9_161
*1032 FILLER_9_169
*1033 FILLER_9_177
*1034 FILLER_9_179
*1035 FILLER_9_181
*1036 FILLER_9_189
*1037 FILLER_9_197
*1038 FILLER_9_205
*1039 FILLER_9_213
*1040 FILLER_9_221
*1041 FILLER_9_229
*1042 FILLER_9_237
*1043 FILLER_9_239
*1044 FILLER_9_241
*1045 FILLER_9_249
*1046 FILLER_9_257
*1047 FILLER_9_265
*1048 FILLER_9_273
*1049 FILLER_9_281
*1050 FILLER_9_289
*1051 FILLER_9_297
*1052 FILLER_9_299
*1053 FILLER_9_301
*1054 FILLER_9_309
*1055 FILLER_9_317
*1056 FILLER_9_325
*1057 FILLER_9_333
*1058 FILLER_9_341
*1059 FILLER_9_349
*1060 FILLER_9_357
*1061 FILLER_9_359
*1062 FILLER_9_361
*1063 FILLER_9_369
*1064 FILLER_9_377
*1065 FILLER_9_385
*1066 FILLER_9_389
*1067 FILLER_10_0
*1068 FILLER_10_8
*1069 FILLER_10_16
*1070 FILLER_10_24
*1071 FILLER_10_28
*1072 FILLER_10_31
*1073 FILLER_10_39
*1074 FILLER_10_47
*1075 FILLER_10_55
*1076 FILLER_10_63
*1077 FILLER_10_71
*1078 FILLER_10_79
*1079 FILLER_10_87
*1080 FILLER_10_89
*1081 FILLER_10_91
*1082 FILLER_10_99
*1083 FILLER_10_107
*1084 FILLER_10_115
*1085 FILLER_10_123
*1086 FILLER_10_131
*1087 FILLER_10_139
*1088 FILLER_10_147
*1089 FILLER_10_149
*1090 FILLER_10_151
*1091 FILLER_10_159
*1092 FILLER_10_167
*1093 FILLER_10_175
*1094 FILLER_10_183
*1095 FILLER_10_191
*1096 FILLER_10_199
*1097 FILLER_10_207
*1098 FILLER_10_209
*1099 FILLER_10_211
*1100 FILLER_10_219
*1101 FILLER_10_227
*1102 FILLER_10_235
*1103 FILLER_10_243
*1104 FILLER_10_251
*1105 FILLER_10_259
*1106 FILLER_10_267
*1107 FILLER_10_269
*1108 FILLER_10_271
*1109 FILLER_10_279
*1110 FILLER_10_287
*1111 FILLER_10_295
*1112 FILLER_10_303
*1113 FILLER_10_311
*1114 FILLER_10_319
*1115 FILLER_10_327
*1116 FILLER_10_329
*1117 FILLER_10_331
*1118 FILLER_10_339
*1119 FILLER_10_347
*1120 FILLER_10_355
*1121 FILLER_10_363
*1122 FILLER_10_371
*1123 FILLER_10_379
*1124 FILLER_10_387
*1125 FILLER_10_389
*1126 FILLER_11_0
*1127 FILLER_11_8
*1128 FILLER_11_16
*1129 FILLER_11_24
*1130 FILLER_11_32
*1131 FILLER_11_40
*1132 FILLER_11_48
*1133 FILLER_11_56
*1134 FILLER_11_61
*1135 FILLER_11_69
*1136 FILLER_11_77
*1137 FILLER_11_85
*1138 FILLER_11_93
*1139 FILLER_11_101
*1140 FILLER_11_109
*1141 FILLER_11_117
*1142 FILLER_11_119
*1143 FILLER_11_121
*1144 FILLER_11_129
*1145 FILLER_11_137
*1146 FILLER_11_145
*1147 FILLER_11_153
*1148 FILLER_11_161
*1149 FILLER_11_169
*1150 FILLER_11_177
*1151 FILLER_11_179
*1152 FILLER_11_181
*1153 FILLER_11_189
*1154 FILLER_11_197
*1155 FILLER_11_205
*1156 FILLER_11_213
*1157 FILLER_11_221
*1158 FILLER_11_229
*1159 FILLER_11_237
*1160 FILLER_11_239
*1161 FILLER_11_241
*1162 FILLER_11_249
*1163 FILLER_11_257
*1164 FILLER_11_265
*1165 FILLER_11_273
*1166 FILLER_11_281
*1167 FILLER_11_289
*1168 FILLER_11_297
*1169 FILLER_11_299
*1170 FILLER_11_301
*1171 FILLER_11_309
*1172 FILLER_11_317
*1173 FILLER_11_325
*1174 FILLER_11_333
*1175 FILLER_11_341
*1176 FILLER_11_349
*1177 FILLER_11_357
*1178 FILLER_11_359
*1179 FILLER_11_361
*1180 FILLER_11_369
*1181 FILLER_11_377
*1182 FILLER_11_385
*1183 FILLER_11_389
*1184 FILLER_12_0
*1185 FILLER_12_8
*1186 FILLER_12_16
*1187 FILLER_12_24
*1188 FILLER_12_28
*1189 FILLER_12_31
*1190 FILLER_12_39
*1191 FILLER_12_47
*1192 FILLER_12_55
*1193 FILLER_12_63
*1194 FILLER_12_71
*1195 FILLER_12_79
*1196 FILLER_12_87
*1197 FILLER_12_89
*1198 FILLER_12_91
*1199 FILLER_12_99
*1200 FILLER_12_107
*1201 FILLER_12_115
*1202 FILLER_12_123
*1203 FILLER_12_131
*1204 FILLER_12_139
*1205 FILLER_12_147
*1206 FILLER_12_149
*1207 FILLER_12_151
*1208 FILLER_12_159
*1209 FILLER_12_167
*1210 FILLER_12_175
*1211 FILLER_12_183
*1212 FILLER_12_191
*1213 FILLER_12_199
*1214 FILLER_12_207
*1215 FILLER_12_209
*1216 FILLER_12_211
*1217 FILLER_12_219
*1218 FILLER_12_227
*1219 FILLER_12_235
*1220 FILLER_12_243
*1221 FILLER_12_251
*1222 FILLER_12_259
*1223 FILLER_12_267
*1224 FILLER_12_269
*1225 FILLER_12_271
*1226 FILLER_12_279
*1227 FILLER_12_287
*1228 FILLER_12_295
*1229 FILLER_12_303
*1230 FILLER_12_311
*1231 FILLER_12_319
*1232 FILLER_12_327
*1233 FILLER_12_329
*1234 FILLER_12_331
*1235 FILLER_12_339
*1236 FILLER_12_347
*1237 FILLER_12_355
*1238 FILLER_12_363
*1239 FILLER_12_371
*1240 FILLER_12_379
*1241 FILLER_12_387
*1242 FILLER_12_389
*1243 FILLER_13_0
*1244 FILLER_13_8
*1245 FILLER_13_16
*1246 FILLER_13_24
*1247 FILLER_13_32
*1248 FILLER_13_40
*1249 FILLER_13_48
*1250 FILLER_13_56
*1251 FILLER_13_61
*1252 FILLER_13_69
*1253 FILLER_13_77
*1254 FILLER_13_85
*1255 FILLER_13_93
*1256 FILLER_13_101
*1257 FILLER_13_109
*1258 FILLER_13_117
*1259 FILLER_13_119
*1260 FILLER_13_121
*1261 FILLER_13_129
*1262 FILLER_13_137
*1263 FILLER_13_145
*1264 FILLER_13_153
*1265 FILLER_13_161
*1266 FILLER_13_169
*1267 FILLER_13_177
*1268 FILLER_13_179
*1269 FILLER_13_181
*1270 FILLER_13_189
*1271 FILLER_13_197
*1272 FILLER_13_205
*1273 FILLER_13_213
*1274 FILLER_13_221
*1275 FILLER_13_229
*1276 FILLER_13_237
*1277 FILLER_13_239
*1278 FILLER_13_241
*1279 FILLER_13_249
*1280 FILLER_13_257
*1281 FILLER_13_265
*1282 FILLER_13_273
*1283 FILLER_13_281
*1284 FILLER_13_289
*1285 FILLER_13_297
*1286 FILLER_13_299
*1287 FILLER_13_301
*1288 FILLER_13_309
*1289 FILLER_13_317
*1290 FILLER_13_325
*1291 FILLER_13_333
*1292 FILLER_13_341
*1293 FILLER_13_349
*1294 FILLER_13_357
*1295 FILLER_13_359
*1296 FILLER_13_361
*1297 FILLER_13_369
*1298 FILLER_13_377
*1299 FILLER_13_385
*1300 FILLER_13_389
*1301 FILLER_14_0
*1302 FILLER_14_8
*1303 FILLER_14_16
*1304 FILLER_14_24
*1305 FILLER_14_28
*1306 FILLER_14_31
*1307 FILLER_14_39
*1308 FILLER_14_47
*1309 FILLER_14_55
*1310 FILLER_14_63
*1311 FILLER_14_71
*1312 FILLER_14_79
*1313 FILLER_14_87
*1314 FILLER_14_89
*1315 FILLER_14_91
*1316 FILLER_14_99
*1317 FILLER_14_107
*1318 FILLER_14_115
*1319 FILLER_14_123
*1320 FILLER_14_131
*1321 FILLER_14_139
*1322 FILLER_14_147
*1323 FILLER_14_149
*1324 FILLER_14_151
*1325 FILLER_14_159
*1326 FILLER_14_167
*1327 FILLER_14_175
*1328 FILLER_14_183
*1329 FILLER_14_191
*1330 FILLER_14_199
*1331 FILLER_14_207
*1332 FILLER_14_209
*1333 FILLER_14_211
*1334 FILLER_14_219
*1335 FILLER_14_227
*1336 FILLER_14_235
*1337 FILLER_14_243
*1338 FILLER_14_251
*1339 FILLER_14_259
*1340 FILLER_14_267
*1341 FILLER_14_269
*1342 FILLER_14_271
*1343 FILLER_14_279
*1344 FILLER_14_287
*1345 FILLER_14_295
*1346 FILLER_14_303
*1347 FILLER_14_311
*1348 FILLER_14_319
*1349 FILLER_14_327
*1350 FILLER_14_329
*1351 FILLER_14_331
*1352 FILLER_14_339
*1353 FILLER_14_347
*1354 FILLER_14_355
*1355 FILLER_14_363
*1356 FILLER_14_371
*1357 FILLER_14_379
*1358 FILLER_14_387
*1359 FILLER_14_389
*1360 FILLER_15_0
*1361 FILLER_15_8
*1362 FILLER_15_16
*1363 FILLER_15_24
*1364 FILLER_15_32
*1365 FILLER_15_40
*1366 FILLER_15_48
*1367 FILLER_15_56
*1368 FILLER_15_61
*1369 FILLER_15_69
*1370 FILLER_15_77
*1371 FILLER_15_85
*1372 FILLER_15_93
*1373 FILLER_15_101
*1374 FILLER_15_109
*1375 FILLER_15_117
*1376 FILLER_15_119
*1377 FILLER_15_121
*1378 FILLER_15_129
*1379 FILLER_15_137
*1380 FILLER_15_145
*1381 FILLER_15_153
*1382 FILLER_15_161
*1383 FILLER_15_169
*1384 FILLER_15_177
*1385 FILLER_15_179
*1386 FILLER_15_181
*1387 FILLER_15_189
*1388 FILLER_15_197
*1389 FILLER_15_205
*1390 FILLER_15_213
*1391 FILLER_15_221
*1392 FILLER_15_229
*1393 FILLER_15_237
*1394 FILLER_15_239
*1395 FILLER_15_241
*1396 FILLER_15_249
*1397 FILLER_15_257
*1398 FILLER_15_265
*1399 FILLER_15_273
*1400 FILLER_15_281
*1401 FILLER_15_289
*1402 FILLER_15_297
*1403 FILLER_15_299