*SPEF "ieee 1481-1999"
*DESIGN "seq_detect_101"
*DATE "15:44:30 Monday April 27, 2026"
*VENDOR "The OpenROAD Project"
*PROGRAM "OpenROAD"
*VERSION "26Q2-339-g0504146ce6"
*DESIGN_FLOW "NAME_SCOPE LOCAL" "PIN_CAP NONE"
*DIVIDER /
*DELIMITER :
*BUS_DELIMITER []
*T_UNIT 1 NS
*C_UNIT 1 PF
*R_UNIT 1 OHM
*L_UNIT 1 HENRY

*NAME_MAP
*1 _00_
*2 _01_
*3 _02_
*4 net1
*5 net2
*6 net4
*7 net3
*8 state_reg\[1\]
*9 state_reg\[2\]
*12 bit_in
*13 clk
*14 rst
*15 match
*16 _3_
*17 _4_
*18 _5_
*19 match\$_DFF_P_
*20 state_reg\[1\]\$_DFF_P_
*21 state_reg\[2\]\$_DFF_P_
*22 TAP_TAPCELL_ROW_0_0
*23 TAP_TAPCELL_ROW_0_1
*24 TAP_TAPCELL_ROW_1_2
*25 TAP_TAPCELL_ROW_2_3
*26 TAP_TAPCELL_ROW_3_4
*27 TAP_TAPCELL_ROW_4_5
*28 TAP_TAPCELL_ROW_5_6
*29 TAP_TAPCELL_ROW_6_7
*30 TAP_TAPCELL_ROW_7_8
*31 TAP_TAPCELL_ROW_8_9
*32 TAP_TAPCELL_ROW_9_10
*33 TAP_TAPCELL_ROW_10_11
*34 TAP_TAPCELL_ROW_11_12
*35 TAP_TAPCELL_ROW_12_13
*36 TAP_TAPCELL_ROW_13_14
*37 TAP_TAPCELL_ROW_13_15
*38 input1
*39 input2
*40 input3
*41 output4
*42 FILLER_0_0
*43 FILLER_0_8
*44 FILLER_0_16
*45 FILLER_0_24
*46 FILLER_0_28
*47 FILLER_0_31
*48 FILLER_0_39
*49 FILLER_0_47
*50 FILLER_0_55
*51 FILLER_0_59
*52 FILLER_0_61
*53 FILLER_0_69
*54 FILLER_0_77
*55 FILLER_0_85
*56 FILLER_1_0
*57 FILLER_1_8
*58 FILLER_1_16
*59 FILLER_1_24
*60 FILLER_1_32
*61 FILLER_1_40
*62 FILLER_1_48
*63 FILLER_1_56
*64 FILLER_1_61
*65 FILLER_1_69
*66 FILLER_1_77
*67 FILLER_1_85
*68 FILLER_2_0
*69 FILLER_2_8
*70 FILLER_2_16
*71 FILLER_2_24
*72 FILLER_2_28
*73 FILLER_2_31
*74 FILLER_2_39
*75 FILLER_2_47
*76 FILLER_2_55
*77 FILLER_2_63
*78 FILLER_2_71
*79 FILLER_2_79
*80 FILLER_2_87
*81 FILLER_3_0
*82 FILLER_3_8
*83 FILLER_3_16
*84 FILLER_3_24
*85 FILLER_3_32
*86 FILLER_3_34
*87 FILLER_3_48
*88 FILLER_3_56
*89 FILLER_3_61
*90 FILLER_3_69
*91 FILLER_3_77
*92 FILLER_3_85
*93 FILLER_4_0
*94 FILLER_4_8
*95 FILLER_4_16
*96 FILLER_4_24
*97 FILLER_4_28
*98 FILLER_4_31
*99 FILLER_4_33
*100 FILLER_4_50
*101 FILLER_4_58
*102 FILLER_4_66
*103 FILLER_4_74
*104 FILLER_4_82
*105 FILLER_4_86
*106 FILLER_4_88
*107 FILLER_5_0
*108 FILLER_5_8
*109 FILLER_5_16
*110 FILLER_5_24
*111 FILLER_5_32
*112 FILLER_5_40
*113 FILLER_5_48
*114 FILLER_5_56
*115 FILLER_5_61
*116 FILLER_5_69
*117 FILLER_5_77
*118 FILLER_5_85
*119 FILLER_6_0
*120 FILLER_6_8
*121 FILLER_6_24
*122 FILLER_6_28
*123 FILLER_6_31
*124 FILLER_6_39
*125 FILLER_6_47
*126 FILLER_6_55
*127 FILLER_6_63
*128 FILLER_6_71
*129 FILLER_6_79
*130 FILLER_6_87
*131 FILLER_7_0
*132 FILLER_7_12
*133 FILLER_7_20
*134 FILLER_7_28
*135 FILLER_7_36
*136 FILLER_7_54
*137 FILLER_7_58
*138 FILLER_7_61
*139 FILLER_7_77
*140 FILLER_7_85
*141 FILLER_8_0
*142 FILLER_8_8
*143 FILLER_8_16
*144 FILLER_8_24
*145 FILLER_8_28
*146 FILLER_8_31
*147 FILLER_8_39
*148 FILLER_8_67
*149 FILLER_8_75
*150 FILLER_8_83
*151 FILLER_8_87
*152 FILLER_9_0
*153 FILLER_9_8
*154 FILLER_9_16
*155 FILLER_9_24
*156 FILLER_9_32
*157 FILLER_9_40
*158 FILLER_9_48
*159 FILLER_9_56
*160 FILLER_9_61
*161 FILLER_9_69
*162 FILLER_9_77
*163 FILLER_9_85
*164 FILLER_10_0
*165 FILLER_10_8
*166 FILLER_10_16
*167 FILLER_10_24
*168 FILLER_10_28
*169 FILLER_10_31
*170 FILLER_10_39
*171 FILLER_10_47
*172 FILLER_10_55
*173 FILLER_10_63
*174 FILLER_10_71
*175 FILLER_10_79
*176 FILLER_10_87
*177 FILLER_11_0
*178 FILLER_11_8
*179 FILLER_11_16
*180 FILLER_11_24
*181 FILLER_11_32
*182 FILLER_11_40
*183 FILLER_11_49
*184 FILLER_11_57
*185 FILLER_11_59
*186 FILLER_11_61
*187 FILLER_11_69
*188 FILLER_11_77
*189 FILLER_11_85
*190 FILLER_12_0
*191 FILLER_12_8
*192 FILLER_12_16
*193 FILLER_12_24
*194 FILLER_12_28
*195 FILLER_12_31
*196 FILLER_12_39
*197 FILLER_12_47
*198 FILLER_12_55
*199 FILLER_12_63
*200 FILLER_12_71
*201 FILLER_12_79
*202 FILLER_12_87
*203 FILLER_13_0
*204 FILLER_13_8
*205 FILLER_13_16
*206 FILLER_13_24
*207 FILLER_13_28
*208 FILLER_13_31
*209 FILLER_13_39
*210 FILLER_13_47
*211 FILLER_13_55
*212 FILLER_13_59
*213 FILLER_13_61
*214 FILLER_13_69
*215 FILLER_13_77
*216 FILLER_13_85

*PORTS
bit_in I
clk I
match O
rst I

*D_NET *1 0.000315049
*CONN
*I *19:D I *D sky130_fd_sc_hd__dfxtp_1
*I *16:X O *D sky130_fd_sc_hd__and3b_2
*CAP
1 *19:D 8.26924e-05
2 *16:X 8.26924e-05
3 *19:D *16:C 0.000118166
4 *19:D *19:CLK 3.14978e-05
*RES
1 *16:X *19:D 21.2773 
*END

*D_NET *2 0.00129312
*CONN
*I *20:D I *D sky130_fd_sc_hd__dfxtp_1
*I *17:Y O *D sky130_fd_sc_hd__nor3b_1
*CAP
1 *20:D 0.000529053
2 *17:Y 0.000529053
3 *20:D *16:A_N 6.46135e-05
4 *20:D *17:A 6.92705e-05
5 *20:D *17:C_N 0
6 *20:D *19:CLK 0
7 *20:D *21:D 0.000101133
8 *20:D *21:CLK 0
9 *20:D *4:14 0
10 *20:D *7:12 0
*RES
1 *17:Y *20:D 41.0733 
*END

*D_NET *3 0.000393583
*CONN
*I *21:D I *D sky130_fd_sc_hd__dfxtp_1
*I *18:X O *D sky130_fd_sc_hd__and2b_2
*CAP
1 *21:D 0.000146225
2 *18:X 0.000146225
3 *21:D *7:12 0
4 *20:D *21:D 0.000101133
*RES
1 *18:X *21:D 31.2171 
*END

*D_NET *4 0.00279964
*CONN
*I *16:B I *D sky130_fd_sc_hd__and3b_2
*I *17:B I *D sky130_fd_sc_hd__nor3b_1
*I *18:B I *D sky130_fd_sc_hd__and2b_2
*I *38:X O *D sky130_fd_sc_hd__clkdlybuf4s50_1
*CAP
1 *16:B 4.51847e-05
2 *17:B 0
3 *18:B 9.86506e-05
4 *38:X 0.000332496
5 *4:14 0.000901371
6 *4:8 0.0011804
7 *16:B *19:CLK 2.65667e-05
8 *18:B *17:A 0.000128091
9 *4:14 *16:A_N 0
10 *4:14 *16:C 0
11 *4:14 *17:A 3.14978e-05
12 *4:14 *17:C_N 5.53789e-05
13 *20:D *4:14 0
*RES
1 *38:X *4:8 21.8099 
2 *4:8 *4:14 24.914 
3 *4:14 *18:B 12.7697 
4 *4:14 *17:B 9.24915 
5 *4:8 *16:B 14.4725 
*END

*D_NET *5 0.00350139
*CONN
*I *20:CLK I *D sky130_fd_sc_hd__dfxtp_1
*I *19:CLK I *D sky130_fd_sc_hd__dfxtp_1
*I *21:CLK I *D sky130_fd_sc_hd__dfxtp_1
*I *39:X O *D sky130_fd_sc_hd__clkdlybuf4s50_1
*CAP
1 *20:CLK 9.9561e-05
2 *19:CLK 0.000541329
3 *21:CLK 0.000296742
4 *39:X 0.000542949
5 *5:8 0.000838071
6 *5:6 0.00064251
7 *19:CLK *16:A_N 0
8 *19:CLK *16:C 3.48171e-05
9 *21:CLK *7:12 0.000447349
10 *16:B *19:CLK 2.65667e-05
11 *19:D *19:CLK 3.14978e-05
12 *20:D *19:CLK 0
13 *20:D *21:CLK 0
*RES
1 *39:X *5:6 22.1738 
2 *5:6 *5:8 4.5 
3 *5:8 *21:CLK 23.4709 
4 *5:8 *19:CLK 27.2545 
5 *5:6 *20:CLK 11.6364 
*END

*D_NET *6 0.000454607
*CONN
*I *41:A I *D sky130_fd_sc_hd__clkdlybuf4s50_1
*I *19:Q O *D sky130_fd_sc_hd__dfxtp_1
*CAP
1 *41:A 0.000227304
2 *19:Q 0.000227304
*RES
1 *19:Q *41:A 31.5781 
*END

*D_NET *7 0.0038645
*CONN
*I *16:A_N I *D sky130_fd_sc_hd__and3b_2
*I *17:A I *D sky130_fd_sc_hd__nor3b_1
*I *18:A_N I *D sky130_fd_sc_hd__and2b_2
*I *40:X O *D sky130_fd_sc_hd__clkdlybuf4s50_1
*CAP
1 *16:A_N 0.000515272
2 *17:A 0.000214754
3 *18:A_N 0
4 *40:X 0.000507785
5 *7:12 0.000538782
6 *7:6 0.00134708
7 *18:B *17:A 0.000128091
8 *19:CLK *16:A_N 0
9 *20:D *16:A_N 6.46135e-05
10 *20:D *17:A 6.92705e-05
11 *20:D *7:12 0
12 *21:D *7:12 0
13 *21:CLK *7:12 0.000447349
14 *4:14 *16:A_N 0
15 *4:14 *17:A 3.14978e-05
*RES
1 *40:X *7:6 16.0732 
2 *7:6 *7:12 19.5523 
3 *7:12 *18:A_N 9.24915 
4 *7:12 *17:A 15.5427 
5 *7:6 *16:A_N 28.0088 
*END

*D_NET *8 0.000746101
*CONN
*I *16:C I *D sky130_fd_sc_hd__and3b_2
*I *20:Q O *D sky130_fd_sc_hd__dfxtp_1
*CAP
1 *16:C 0.000296559
2 *20:Q 0.000296559
3 *19:D *16:C 0.000118166
4 *19:CLK *16:C 3.48171e-05
5 *4:14 *16:C 0
*RES
1 *20:Q *16:C 32.526 
*END

*D_NET *9 0.000506028
*CONN
*I *17:C_N I *D sky130_fd_sc_hd__nor3b_1
*I *21:Q O *D sky130_fd_sc_hd__dfxtp_1
*CAP
1 *17:C_N 0.000225324
2 *21:Q 0.000225324
3 *20:D *17:C_N 0
4 *4:14 *17:C_N 5.53789e-05
*RES
1 *21:Q *17:C_N 31.5781 
*END

*D_NET *12 0.00134574
*CONN
*P bit_in I
*I *38:A I *D sky130_fd_sc_hd__clkdlybuf4s50_1
*CAP
1 bit_in 0.000672872
2 *38:A 0.000672872
*RES
1 bit_in *38:A 31.3757 
*END

*D_NET *13 0.00105919
*CONN
*P clk I
*I *39:A I *D sky130_fd_sc_hd__clkdlybuf4s50_1
*CAP
1 clk 0.000300649
2 *39:A 0.000300649
3 *39:A *40:A 0.000457894
*RES
1 clk *39:A 20.1058 
*END

*D_NET *14 0.00154562
*CONN
*P rst I
*I *40:A I *D sky130_fd_sc_hd__clkdlybuf4s50_1
*CAP
1 rst 0.000543862
2 *40:A 0.000543862
3 *39:A *40:A 0.000457894
*RES
1 rst *40:A 20.1932 
*END

*D_NET *15 0.00134209
*CONN
*P match O
*I *41:X O *D sky130_fd_sc_hd__clkdlybuf4s50_1
*CAP
1 match 0.000671047
2 *41:X 0.000671047
*RES
1 *41:X match 19.3955 
*END
