*SPEF "ieee 1481-1999"
*DESIGN "seq_detector_0011"
*DATE "15:42:52 Monday April 27, 2026"
*VENDOR "The OpenROAD Project"
*PROGRAM "OpenROAD"
*VERSION "26Q2-339-g0504146ce6"
*DESIGN_FLOW "NAME_SCOPE LOCAL" "PIN_CAP NONE"
*DIVIDER /
*DELIMITER :
*BUS_DELIMITER []
*T_UNIT 1 NS
*C_UNIT 1 PF
*R_UNIT 1 OHM
*L_UNIT 1 HENRY

*NAME_MAP
*1 _00_
*2 _01_
*3 _02_\[0\]
*4 _02_\[1\]
*5 _02_\[2\]
*6 _2_
*7 clk
*8 net1
*9 detect_pending
*10 net3
*11 history\[0\]
*12 history\[1\]
*13 history\[2\]
*14 net2
*17 data_in
*18 reset
*19 detected
*20 clknet_0_clk
*21 clknet_1_0__leaf_clk
*22 clknet_1_1__leaf_clk
*23 _3_
*24 _4_
*25 _5_
*26 _6_
*27 _7_
*28 _8_
*29 detect_pending\$_DFF_P_
*30 detected\$_DFF_P_
*31 history\[0\]\$_DFF_P_
*32 history\[1\]\$_DFF_P_
*33 history\[2\]\$_DFF_P_
*34 TAP_TAPCELL_ROW_0_0
*35 TAP_TAPCELL_ROW_0_1
*36 TAP_TAPCELL_ROW_1_2
*37 TAP_TAPCELL_ROW_2_3
*38 TAP_TAPCELL_ROW_3_4
*39 TAP_TAPCELL_ROW_4_5
*40 TAP_TAPCELL_ROW_5_6
*41 TAP_TAPCELL_ROW_6_7
*42 TAP_TAPCELL_ROW_7_8
*43 TAP_TAPCELL_ROW_8_9
*44 TAP_TAPCELL_ROW_9_10
*45 TAP_TAPCELL_ROW_10_11
*46 TAP_TAPCELL_ROW_11_12
*47 TAP_TAPCELL_ROW_12_13
*48 TAP_TAPCELL_ROW_12_14
*49 input1
*50 input2
*51 output3
*52 clkbuf_0_clk
*53 clkbuf_1_0__f_clk
*54 clkbuf_1_1__f_clk
*55 clkload0
*56 FILLER_0_0
*57 FILLER_0_8
*58 FILLER_0_16
*59 FILLER_0_26
*60 FILLER_0_31
*61 FILLER_0_39
*62 FILLER_0_47
*63 FILLER_0_55
*64 FILLER_0_59
*65 FILLER_0_61
*66 FILLER_0_69
*67 FILLER_0_77
*68 FILLER_0_81
*69 FILLER_1_0
*70 FILLER_1_8
*71 FILLER_1_16
*72 FILLER_1_24
*73 FILLER_1_32
*74 FILLER_1_40
*75 FILLER_1_48
*76 FILLER_1_56
*77 FILLER_1_61
*78 FILLER_1_69
*79 FILLER_1_77
*80 FILLER_1_81
*81 FILLER_2_0
*82 FILLER_2_8
*83 FILLER_2_16
*84 FILLER_2_24
*85 FILLER_2_28
*86 FILLER_2_38
*87 FILLER_2_46
*88 FILLER_2_54
*89 FILLER_2_62
*90 FILLER_2_70
*91 FILLER_2_78
*92 FILLER_3_0
*93 FILLER_3_8
*94 FILLER_3_12
*95 FILLER_3_49
*96 FILLER_3_53
*97 FILLER_3_61
*98 FILLER_3_69
*99 FILLER_3_81
*100 FILLER_4_0
*101 FILLER_4_8
*102 FILLER_4_16
*103 FILLER_4_25
*104 FILLER_4_29
*105 FILLER_4_31
*106 FILLER_4_39
*107 FILLER_4_70
*108 FILLER_4_78
*109 FILLER_5_0
*110 FILLER_5_4
*111 FILLER_5_11
*112 FILLER_5_19
*113 FILLER_5_27
*114 FILLER_5_49
*115 FILLER_5_53
*116 FILLER_5_57
*117 FILLER_5_59
*118 FILLER_5_61
*119 FILLER_5_69
*120 FILLER_5_77
*121 FILLER_5_81
*122 FILLER_6_0
*123 FILLER_6_4
*124 FILLER_6_13
*125 FILLER_6_24
*126 FILLER_6_28
*127 FILLER_6_31
*128 FILLER_6_41
*129 FILLER_6_49
*130 FILLER_6_57
*131 FILLER_6_65
*132 FILLER_6_73
*133 FILLER_6_81
*134 FILLER_7_0
*135 FILLER_7_8
*136 FILLER_7_32
*137 FILLER_7_40
*138 FILLER_7_48
*139 FILLER_7_56
*140 FILLER_7_61
*141 FILLER_7_69
*142 FILLER_7_77
*143 FILLER_7_81
*144 FILLER_8_0
*145 FILLER_8_8
*146 FILLER_8_16
*147 FILLER_8_24
*148 FILLER_8_28
*149 FILLER_8_31
*150 FILLER_8_39
*151 FILLER_8_47
*152 FILLER_8_55
*153 FILLER_8_63
*154 FILLER_8_71
*155 FILLER_8_79
*156 FILLER_8_81
*157 FILLER_9_0
*158 FILLER_9_8
*159 FILLER_9_16
*160 FILLER_9_24
*161 FILLER_9_32
*162 FILLER_9_40
*163 FILLER_9_48
*164 FILLER_9_56
*165 FILLER_9_61
*166 FILLER_9_69
*167 FILLER_9_77
*168 FILLER_9_81
*169 FILLER_10_0
*170 FILLER_10_8
*171 FILLER_10_16
*172 FILLER_10_24
*173 FILLER_10_28
*174 FILLER_10_31
*175 FILLER_10_39
*176 FILLER_10_47
*177 FILLER_10_55
*178 FILLER_10_63
*179 FILLER_10_71
*180 FILLER_10_79
*181 FILLER_10_81
*182 FILLER_11_0
*183 FILLER_11_8
*184 FILLER_11_16
*185 FILLER_11_24
*186 FILLER_11_32
*187 FILLER_11_40
*188 FILLER_11_48
*189 FILLER_11_56
*190 FILLER_11_61
*191 FILLER_11_69
*192 FILLER_11_77
*193 FILLER_11_81
*194 FILLER_12_0
*195 FILLER_12_8
*196 FILLER_12_16
*197 FILLER_12_24
*198 FILLER_12_28
*199 FILLER_12_31
*200 FILLER_12_39
*201 FILLER_12_47
*202 FILLER_12_55
*203 FILLER_12_59
*204 FILLER_12_61
*205 FILLER_12_69
*206 FILLER_12_77
*207 FILLER_12_81

*PORTS
clk I
data_in I
detected O
reset I

*D_NET *1 0.000322694
*CONN
*I *29:D I *D sky130_fd_sc_hd__dfxtp_1
*I *25:X O *D sky130_fd_sc_hd__and3_1
*CAP
1 *29:D 0.000129958
2 *25:X 0.000129958
3 *29:D *29:CLK 6.27782e-05
*RES
1 *25:X *29:D 22.0912 
*END

*D_NET *2 0.00030792
*CONN
*I *30:D I *D sky130_fd_sc_hd__dfxtp_1
*I *28:X O *D sky130_fd_sc_hd__and2b_2
*CAP
1 *30:D 0.00015396
2 *28:X 0.00015396
*RES
1 *28:X *30:D 21.8319 
*END

*D_NET *3 0.00177037
*CONN
*I *31:D I *D sky130_fd_sc_hd__dfxtp_1
*I *25:B I *D sky130_fd_sc_hd__and3_1
*I *23:Y O *D sky130_fd_sc_hd__nor2b_2
*CAP
1 *31:D 0.000276385
2 *25:B 0.000457605
3 *23:Y 4.85187e-05
4 *3:8 0.000782509
5 *25:B *23:A 5.34657e-05
6 *25:B *26:B 0
7 *25:B *29:CLK 0.000119653
8 *25:B *11:10 0
9 *31:D *23:A 1.78514e-05
10 *31:D *31:CLK 0
11 *31:D *11:10 0
12 *3:8 *23:B_N 1.43848e-05
*RES
1 *23:Y *3:8 14.4725 
2 *3:8 *25:B 22.4024 
3 *3:8 *31:D 20.2354 
*END

*D_NET *4 0.000495183
*CONN
*I *32:D I *D sky130_fd_sc_hd__dfxtp_1
*I *26:X O *D sky130_fd_sc_hd__and2b_2
*CAP
1 *32:D 0.000226234
2 *26:X 0.000226234
3 *32:D *32:CLK 0
4 *32:D *14:21 4.27148e-05
*RES
1 *26:X *32:D 32.881 
*END

*D_NET *5 0.00026604
*CONN
*I *33:D I *D sky130_fd_sc_hd__dfxtp_1
*I *27:X O *D sky130_fd_sc_hd__and2b_2
*CAP
1 *33:D 0.00012809
2 *27:X 0.00012809
3 *33:D *24:B 3.18826e-06
4 *33:D *33:CLK 6.67095e-06
*RES
1 *27:X *33:D 30.3838 
*END

*D_NET *6 0.000968243
*CONN
*I *25:C I *D sky130_fd_sc_hd__and3_1
*I *24:Y O *D sky130_fd_sc_hd__nor2_1
*CAP
1 *25:C 0.000402468
2 *24:Y 0.000402468
3 *25:C *26:B 0
4 *25:C *29:CLK 9.68673e-05
5 *25:C *12:10 6.64392e-05
6 *25:C *14:21 0
7 *25:C *20:19 0
*RES
1 *24:Y *25:C 35.7066 
*END

*D_NET *7 0.0028507
*CONN
*P clk I
*I *52:A I *D sky130_fd_sc_hd__clkbuf_4
*CAP
1 clk 0.00142535
2 *52:A 0
3 *7:10 0.00142535
4 *7:10 *49:A 0
5 *7:10 *11:10 0
6 *7:10 *20:19 0
*RES
1 clk *7:10 9.25241 
2 *7:10 *52:A 13.7491 
*END

*D_NET *8 0.000566313
*CONN
*I *23:B_N I *D sky130_fd_sc_hd__nor2b_2
*I *49:X O *D sky130_fd_sc_hd__clkdlybuf4s50_1
*CAP
1 *23:B_N 0.000275964
2 *49:X 0.000275964
3 *3:8 *23:B_N 1.43848e-05
*RES
1 *49:X *23:B_N 24.7677 
*END

*D_NET *9 0.000290495
*CONN
*I *28:B I *D sky130_fd_sc_hd__and2b_2
*I *29:Q O *D sky130_fd_sc_hd__dfxtp_1
*CAP
1 *28:B 0.000132901
2 *29:Q 0.000132901
3 *28:B *20:54 2.46935e-05
*RES
1 *29:Q *28:B 30.6083 
*END

*D_NET *10 0.000530534
*CONN
*I *51:A I *D sky130_fd_sc_hd__clkdlybuf4s50_1
*I *30:Q O *D sky130_fd_sc_hd__dfxtp_1
*CAP
1 *51:A 0.000265267
2 *30:Q 0.000265267
*RES
1 *30:Q *51:A 32.1327 
*END

*D_NET *11 0.00180179
*CONN
*I *25:A I *D sky130_fd_sc_hd__and3_1
*I *26:B I *D sky130_fd_sc_hd__and2b_2
*I *31:Q O *D sky130_fd_sc_hd__dfxtp_1
*CAP
1 *25:A 4.4467e-05
2 *26:B 0.000248021
3 *31:Q 0.000438746
4 *11:10 0.000731234
5 *25:A *29:CLK 0.000114594
6 *26:B *28:A_N 6.27782e-05
7 *26:B *14:23 0.00016195
8 *25:B *26:B 0
9 *25:B *11:10 0
10 *25:C *26:B 0
11 *31:D *11:10 0
12 *7:10 *11:10 0
*RES
1 *31:Q *11:10 21.845 
2 *11:10 *26:B 19.6294 
3 *11:10 *25:A 15.0271 
*END

*D_NET *12 0.000735506
*CONN
*I *24:A I *D sky130_fd_sc_hd__nor2_1
*I *27:B I *D sky130_fd_sc_hd__and2b_2
*I *32:Q O *D sky130_fd_sc_hd__dfxtp_1
*CAP
1 *24:A 0
2 *27:B 0.000211968
3 *32:Q 9.28599e-05
4 *12:10 0.000304828
5 *27:B *14:21 0
6 *12:10 *24:B 2.33742e-05
7 *12:10 *33:CLK 3.60363e-05
8 *25:C *12:10 6.64392e-05
*RES
1 *32:Q *12:10 12.2392 
2 *12:10 *27:B 22.6049 
3 *12:10 *24:A 9.24915 
*END

*D_NET *13 0.00153179
*CONN
*I *24:B I *D sky130_fd_sc_hd__nor2_1
*I *33:Q O *D sky130_fd_sc_hd__dfxtp_1
*CAP
1 *24:B 0.000726251
2 *33:Q 0.000726251
3 *24:B *33:CLK 5.27237e-05
4 *33:D *24:B 3.18826e-06
5 *12:10 *24:B 2.33742e-05
*RES
1 *33:Q *24:B 30.0485 
*END

*D_NET *14 0.00351719
*CONN
*I *28:A_N I *D sky130_fd_sc_hd__and2b_2
*I *26:A_N I *D sky130_fd_sc_hd__and2b_2
*I *23:A I *D sky130_fd_sc_hd__nor2b_2
*I *27:A_N I *D sky130_fd_sc_hd__and2b_2
*I *50:X O *D sky130_fd_sc_hd__clkdlybuf4s50_1
*CAP
1 *28:A_N 0.000514945
2 *26:A_N 0
3 *23:A 0.000244454
4 *27:A_N 0.000174002
5 *50:X 0.000242592
6 *14:23 0.000395119
7 *14:21 0.000928168
8 *14:8 0.000679151
9 *23:A *31:CLK 0
10 *23:A *32:CLK 0
11 *25:B *23:A 5.34657e-05
12 *25:C *14:21 0
13 *26:B *28:A_N 6.27782e-05
14 *26:B *14:23 0.00016195
15 *27:B *14:21 0
16 *31:D *23:A 1.78514e-05
17 *32:D *14:21 4.27148e-05
*RES
1 *50:X *14:8 19.7337 
2 *14:8 *27:A_N 17.2456 
3 *14:8 *14:21 11.315 
4 *14:21 *14:23 4.05102 
5 *14:23 *23:A 24.6489 
6 *14:23 *26:A_N 9.24915 
7 *14:21 *28:A_N 21.6192 
*END

*D_NET *17 0.000853167
*CONN
*P data_in I
*I *49:A I *D sky130_fd_sc_hd__clkdlybuf4s50_1
*CAP
1 data_in 0.000426584
2 *49:A 0.000426584
3 *7:10 *49:A 0
*RES
1 data_in *49:A 26.9518 
*END

*D_NET *18 0.000654934
*CONN
*P reset I
*I *50:A I *D sky130_fd_sc_hd__clkdlybuf4s50_1
*CAP
1 reset 0.000327467
2 *50:A 0.000327467
*RES
1 reset *50:A 22.2402 
*END

*D_NET *19 0.000574411
*CONN
*P detected O
*I *51:X O *D sky130_fd_sc_hd__clkdlybuf4s50_1
*CAP
1 detected 0.000287206
2 *51:X 0.000287206
*RES
1 *51:X detected 19.9092 
*END

*D_NET *20 0.00414507
*CONN
*I *54:A I *D sky130_fd_sc_hd__clkbuf_4
*I *53:A I *D sky130_fd_sc_hd__clkbuf_4
*I *52:X O *D sky130_fd_sc_hd__clkbuf_4
*CAP
1 *54:A 4.89618e-05
2 *53:A 3.64428e-05
3 *52:X 9.70066e-05
4 *20:54 0.000604152
5 *20:37 0.000652197
6 *20:19 0.00125565
7 *20:6 0.0012192
8 *54:A *33:CLK 6.65861e-05
9 *54:A *22:6 2.41483e-05
10 *20:54 *33:CLK 1.45089e-05
11 *20:54 *55:A 6.66524e-05
12 *20:54 *22:19 3.48744e-05
13 *25:C *20:19 0
14 *28:B *20:54 2.46935e-05
15 *7:10 *20:19 0
*RES
1 *52:X *20:6 13.7491 
2 *20:6 *20:19 12.4074 
3 *20:19 *53:A 14.7378 
4 *52:X *20:37 11.3591 
5 *20:37 *20:54 23.4301 
6 *20:54 *54:A 11.3591 
*END

*D_NET *21 0.00260332
*CONN
*I *29:CLK I *D sky130_fd_sc_hd__dfxtp_1
*I *31:CLK I *D sky130_fd_sc_hd__dfxtp_1
*I *32:CLK I *D sky130_fd_sc_hd__dfxtp_1
*I *53:X O *D sky130_fd_sc_hd__clkbuf_4
*CAP
1 *29:CLK 0.000378494
2 *31:CLK 0.000337749
3 *32:CLK 0.000283339
4 *53:X 0.000105129
5 *21:8 0.000621088
6 *21:6 0.000483624
7 *23:A *31:CLK 0
8 *23:A *32:CLK 0
9 *25:A *29:CLK 0.000114594
10 *25:B *29:CLK 0.000119653
11 *25:C *29:CLK 9.68673e-05
12 *29:D *29:CLK 6.27782e-05
13 *31:D *31:CLK 0
14 *32:D *32:CLK 0
*RES
1 *53:X *21:6 11.6364 
2 *21:6 *21:8 4.5 
3 *21:8 *32:CLK 20.5642 
4 *21:8 *31:CLK 21.4269 
5 *21:6 *29:CLK 19.9554 
*END

*D_NET *22 0.00260089
*CONN
*I *55:A I *D sky130_fd_sc_hd__clkbuf_1
*I *30:CLK I *D sky130_fd_sc_hd__dfxtp_1
*I *33:CLK I *D sky130_fd_sc_hd__dfxtp_1
*I *54:X O *D sky130_fd_sc_hd__clkbuf_4
*CAP
1 *55:A 0.000183941
2 *30:CLK 0
3 *33:CLK 0.000800956
4 *54:X 7.78033e-05
5 *22:19 0.000270585
6 *22:6 0.000965403
7 *24:B *33:CLK 5.27237e-05
8 *33:D *33:CLK 6.67095e-06
9 *54:A *33:CLK 6.65861e-05
10 *54:A *22:6 2.41483e-05
11 *12:10 *33:CLK 3.60363e-05
12 *20:54 *33:CLK 1.45089e-05
13 *20:54 *55:A 6.66524e-05
14 *20:54 *22:19 3.48744e-05
*RES
1 *54:X *22:6 10.5271 
2 *22:6 *33:CLK 22.0533 
3 *22:6 *22:19 6.74725 
4 *22:19 *30:CLK 13.7491 
5 *22:19 *55:A 18.9354 
*END
