*SPEF "ieee 1481-1999"
*DESIGN "button_debouncer"
*DATE "15:45:00 Monday April 27, 2026"
*VENDOR "The OpenROAD Project"
*PROGRAM "OpenROAD"
*VERSION "26Q2-339-g0504146ce6"
*DESIGN_FLOW "NAME_SCOPE LOCAL" "PIN_CAP NONE"
*DIVIDER /
*DELIMITER :
*BUS_DELIMITER []
*T_UNIT 1 NS
*C_UNIT 1 PF
*R_UNIT 1 OHM
*L_UNIT 1 HENRY

*NAME_MAP
*1 _00_
*2 _01_
*3 _02_\[0\]
*4 _02_\[1\]
*5 _05_
*6 _06_
*7 _07_
*8 _08_
*9 _09_
*10 _10_
*11 _11_
*12 _12_
*13 _13_
*14 _14_
*15 _15_
*16 net4
*17 net1
*18 last_sample
*19 net2
*20 net3
*21 stable_count\[0\]
*22 stable_count\[1\]
*25 clk
*26 noisy_btn
*27 rst
*28 clean_btn
*29 _16_
*30 _17_
*31 _18_
*32 _19_
*33 _20_
*34 _21_
*35 _22_
*36 _23_
*37 _24_
*38 _25_
*39 _26_
*40 _27_
*41 _28_
*42 clean_btn\$_DFF_P_
*43 last_sample\$_DFF_P_
*44 stable_count\[0\]\$_DFF_P_
*45 stable_count\[1\]\$_DFF_P_
*46 TAP_TAPCELL_ROW_0_0
*47 TAP_TAPCELL_ROW_0_1
*48 TAP_TAPCELL_ROW_1_2
*49 TAP_TAPCELL_ROW_2_3
*50 TAP_TAPCELL_ROW_3_4
*51 TAP_TAPCELL_ROW_4_5
*52 TAP_TAPCELL_ROW_5_6
*53 TAP_TAPCELL_ROW_6_7
*54 TAP_TAPCELL_ROW_7_8
*55 TAP_TAPCELL_ROW_8_9
*56 TAP_TAPCELL_ROW_9_10
*57 TAP_TAPCELL_ROW_10_11
*58 TAP_TAPCELL_ROW_11_12
*59 TAP_TAPCELL_ROW_12_13
*60 TAP_TAPCELL_ROW_13_14
*61 TAP_TAPCELL_ROW_13_15
*62 input1
*63 input2
*64 input3
*65 output4
*66 FILLER_0_0
*67 FILLER_0_8
*68 FILLER_0_16
*69 FILLER_0_24
*70 FILLER_0_28
*71 FILLER_0_31
*72 FILLER_0_39
*73 FILLER_0_47
*74 FILLER_0_55
*75 FILLER_0_59
*76 FILLER_0_61
*77 FILLER_0_69
*78 FILLER_0_77
*79 FILLER_0_85
*80 FILLER_0_87
*81 FILLER_1_0
*82 FILLER_1_8
*83 FILLER_1_16
*84 FILLER_1_24
*85 FILLER_1_32
*86 FILLER_1_40
*87 FILLER_1_48
*88 FILLER_1_56
*89 FILLER_1_61
*90 FILLER_1_69
*91 FILLER_1_77
*92 FILLER_1_85
*93 FILLER_1_87
*94 FILLER_2_0
*95 FILLER_2_8
*96 FILLER_2_16
*97 FILLER_2_24
*98 FILLER_2_28
*99 FILLER_2_31
*100 FILLER_2_40
*101 FILLER_2_48
*102 FILLER_2_56
*103 FILLER_2_64
*104 FILLER_2_72
*105 FILLER_2_80
*106 FILLER_3_0
*107 FILLER_3_8
*108 FILLER_3_16
*109 FILLER_3_24
*110 FILLER_3_32
*111 FILLER_3_40
*112 FILLER_3_48
*113 FILLER_3_71
*114 FILLER_3_80
*115 FILLER_4_0
*116 FILLER_4_8
*117 FILLER_4_16
*118 FILLER_4_24
*119 FILLER_4_28
*120 FILLER_4_31
*121 FILLER_4_39
*122 FILLER_4_47
*123 FILLER_4_49
*124 FILLER_4_69
*125 FILLER_4_77
*126 FILLER_4_85
*127 FILLER_4_87
*128 FILLER_5_0
*129 FILLER_5_8
*130 FILLER_5_16
*131 FILLER_5_24
*132 FILLER_5_32
*133 FILLER_5_46
*134 FILLER_5_54
*135 FILLER_5_59
*136 FILLER_5_64
*137 FILLER_5_72
*138 FILLER_5_80
*139 FILLER_6_0
*140 FILLER_6_8
*141 FILLER_6_16
*142 FILLER_6_24
*143 FILLER_6_28
*144 FILLER_6_31
*145 FILLER_6_44
*146 FILLER_6_52
*147 FILLER_6_60
*148 FILLER_6_68
*149 FILLER_6_76
*150 FILLER_6_84
*151 FILLER_7_0
*152 FILLER_7_8
*153 FILLER_7_16
*154 FILLER_7_50
*155 FILLER_7_58
*156 FILLER_7_61
*157 FILLER_7_69
*158 FILLER_7_77
*159 FILLER_7_85
*160 FILLER_7_87
*161 FILLER_8_0
*162 FILLER_8_8
*163 FILLER_8_16
*164 FILLER_8_24
*165 FILLER_8_28
*166 FILLER_8_31
*167 FILLER_8_39
*168 FILLER_8_43
*169 FILLER_8_58
*170 FILLER_8_66
*171 FILLER_8_74
*172 FILLER_8_82
*173 FILLER_8_86
*174 FILLER_9_0
*175 FILLER_9_8
*176 FILLER_9_16
*177 FILLER_9_24
*178 FILLER_9_32
*179 FILLER_9_40
*180 FILLER_9_48
*181 FILLER_9_50
*182 FILLER_9_61
*183 FILLER_9_69
*184 FILLER_9_77
*185 FILLER_9_85
*186 FILLER_9_87
*187 FILLER_10_0
*188 FILLER_10_8
*189 FILLER_10_17
*190 FILLER_10_25
*191 FILLER_10_29
*192 FILLER_10_31
*193 FILLER_10_39
*194 FILLER_10_47
*195 FILLER_10_49
*196 FILLER_10_66
*197 FILLER_10_74
*198 FILLER_10_82
*199 FILLER_10_86
*200 FILLER_11_0
*201 FILLER_11_8
*202 FILLER_11_16
*203 FILLER_11_24
*204 FILLER_11_32
*205 FILLER_11_40
*206 FILLER_11_48
*207 FILLER_11_56
*208 FILLER_11_61
*209 FILLER_11_69
*210 FILLER_11_77
*211 FILLER_11_85
*212 FILLER_11_87
*213 FILLER_12_0
*214 FILLER_12_8
*215 FILLER_12_16
*216 FILLER_12_24
*217 FILLER_12_28
*218 FILLER_12_31
*219 FILLER_12_39
*220 FILLER_12_47
*221 FILLER_12_51
*222 FILLER_12_60
*223 FILLER_12_68
*224 FILLER_12_76
*225 FILLER_12_84
*226 FILLER_13_0
*227 FILLER_13_8
*228 FILLER_13_16
*229 FILLER_13_24
*230 FILLER_13_28
*231 FILLER_13_31
*232 FILLER_13_39
*233 FILLER_13_47
*234 FILLER_13_55
*235 FILLER_13_59
*236 FILLER_13_61
*237 FILLER_13_69
*238 FILLER_13_77
*239 FILLER_13_85
*240 FILLER_13_87

*PORTS
clean_btn O
clk I
noisy_btn I
rst I

*D_NET *1 0.00032521
*CONN
*I *42:D I *D sky130_fd_sc_hd__dfxtp_1
*I *39:Y O *D sky130_fd_sc_hd__o21ai_1
*CAP
1 *42:D 9.35156e-05
2 *39:Y 9.35156e-05
3 *42:D *37:B 3.17869e-05
4 *42:D *42:CLK 9.76854e-05
5 *42:D *65:A 8.70662e-06
*RES
1 *39:Y *42:D 30.1079 
*END

*D_NET *2 0.000270749
*CONN
*I *43:D I *D sky130_fd_sc_hd__dfxtp_1
*I *35:Y O *D sky130_fd_sc_hd__nor2_1
*CAP
1 *43:D 0.000113051
2 *35:Y 0.000113051
3 *43:D *40:A 9.71182e-06
4 *43:D *43:CLK 3.17474e-05
5 *43:D *18:10 3.18826e-06
*RES
1 *35:Y *43:D 30.3838 
*END

*D_NET *3 0.00189768
*CONN
*I *44:D I *D sky130_fd_sc_hd__dfxtp_1
*I *31:Y O *D sky130_fd_sc_hd__a31oi_1
*CAP
1 *44:D 0.000478335
2 *31:Y 0.000478335
3 *44:D *30:A 7.02172e-06
4 *44:D *31:A2 0.000171273
5 *44:D *31:A3 1.84293e-05
6 *44:D *45:D 0
7 *44:D *45:CLK 3.31733e-05
8 *44:D *17:23 0.000694523
9 *44:D *21:8 1.65872e-05
*RES
1 *31:Y *44:D 41.0901 
*END

*D_NET *4 0.00091964
*CONN
*I *45:D I *D sky130_fd_sc_hd__dfxtp_1
*I *33:Y O *D sky130_fd_sc_hd__nor3b_1
*CAP
1 *45:D 0.000237188
2 *33:Y 0.000237188
3 *45:D *31:A1 0
4 *45:D *31:B1 0.000122083
5 *45:D *33:B 3.34802e-05
6 *45:D *21:8 7.72256e-05
7 *45:D *22:12 0.000137936
8 *45:D *22:36 7.45404e-05
9 *44:D *45:D 0
*RES
1 *33:Y *45:D 35.3697 
*END

*D_NET *5 0.00203452
*CONN
*I *33:C_N I *D sky130_fd_sc_hd__nor3b_1
*I *31:A1 I *D sky130_fd_sc_hd__a31oi_1
*I *40:SUM O *D sky130_fd_sc_hd__ha_1
*CAP
1 *33:C_N 0
2 *31:A1 0.000246897
3 *40:SUM 0.000286532
4 *5:12 0.000533429
5 *31:A1 *30:A 4.30532e-05
6 *31:A1 *31:A2 0.000264586
7 *31:A1 *31:B1 6.08467e-05
8 *31:A1 *32:A 3.31733e-05
9 *31:A1 *33:B 5.88662e-05
10 *31:A1 *38:D 0
11 *31:A1 *20:25 0
12 *5:12 *29:A 8.58349e-05
13 *5:12 *35:A 4.76794e-05
14 *5:12 *38:D 0.000112484
15 *5:12 *40:A 0
16 *5:12 *20:21 0.000261135
17 *45:D *31:A1 0
*RES
1 *40:SUM *5:12 27.3148 
2 *5:12 *31:A1 25.6538 
3 *5:12 *33:C_N 9.24915 
*END

*D_NET *6 0.0006514
*CONN
*I *40:A I *D sky130_fd_sc_hd__ha_1
*I *29:Y O *D sky130_fd_sc_hd__inv_1
*CAP
1 *40:A 0.000311771
2 *29:Y 0.000311771
3 *40:A *18:10 1.81454e-05
4 *43:D *40:A 9.71182e-06
5 *5:12 *40:A 0
*RES
1 *29:Y *40:A 32.9647 
*END

*D_NET *7 0.000706543
*CONN
*I *34:B I *D sky130_fd_sc_hd__nor2_1
*I *40:COUT O *D sky130_fd_sc_hd__ha_1
*CAP
1 *34:B 0.000341924
2 *40:COUT 0.000341924
3 *34:B *34:A 0
4 *34:B *40:B 2.26947e-05
5 *34:B *41:A 0
6 *34:B *43:CLK 0
*RES
1 *40:COUT *34:B 34.7608 
*END

*D_NET *8 0.000856731
*CONN
*I *34:A I *D sky130_fd_sc_hd__nor2_1
*I *41:COUT O *D sky130_fd_sc_hd__ha_1
*CAP
1 *34:A 0.000414799
2 *41:COUT 0.000414799
3 *34:A *41:A 0
4 *34:A *63:A 2.71337e-05
5 *34:B *34:A 0
*RES
1 *41:COUT *34:A 37.5338 
*END

*D_NET *9 0.000143665
*CONN
*I *31:A3 I *D sky130_fd_sc_hd__a31oi_1
*I *30:Y O *D sky130_fd_sc_hd__inv_1
*CAP
1 *31:A3 1.47058e-05
2 *30:Y 1.47058e-05
3 *31:A3 *30:A 9.58242e-05
4 *44:D *31:A3 1.84293e-05
*RES
1 *30:Y *31:A3 19.499 
*END

*D_NET *10 0.000216659
*CONN
*I *33:B I *D sky130_fd_sc_hd__nor3b_1
*I *32:Y O *D sky130_fd_sc_hd__nor2_1
*CAP
1 *33:B 5.32306e-05
2 *32:Y 5.32306e-05
3 *33:B *31:B1 1.78514e-05
4 *31:A1 *33:B 5.88662e-05
5 *45:D *33:B 3.34802e-05
*RES
1 *32:Y *33:B 29.7455 
*END

*D_NET *11 0.00045529
*CONN
*I *35:B I *D sky130_fd_sc_hd__nor2_1
*I *34:Y O *D sky130_fd_sc_hd__nor2_1
*CAP
1 *35:B 0.000171958
2 *34:Y 0.000171958
3 *35:B *35:A 0.000111374
*RES
1 *34:Y *35:B 22.5734 
*END

*D_NET *12 0.000543128
*CONN
*I *39:A1 I *D sky130_fd_sc_hd__o21ai_1
*I *36:Y O *D sky130_fd_sc_hd__nor2b_1
*CAP
1 *39:A1 0.000150749
2 *36:Y 0.000150749
3 *39:A1 *37:A_N 0.00024163
*RES
1 *36:Y *39:A1 31.9934 
*END

*D_NET *13 0.000447633
*CONN
*I *39:A2 I *D sky130_fd_sc_hd__o21ai_1
*I *37:Y O *D sky130_fd_sc_hd__nand2b_1
*CAP
1 *39:A2 0.00019835
2 *37:Y 0.00019835
3 *39:A2 *37:A_N 4.64798e-05
4 *39:A2 *37:B 4.45375e-06
*RES
1 *37:Y *39:A2 21.4401 
*END

*D_NET *14 0.000354843
*CONN
*I *39:B1 I *D sky130_fd_sc_hd__o21ai_1
*I *38:Y O *D sky130_fd_sc_hd__nand4bb_1
*CAP
1 *39:B1 9.1038e-05
2 *38:Y 9.1038e-05
3 *39:B1 *42:CLK 0.000172767
*RES
1 *38:Y *39:B1 30.576 
*END

*D_NET *16 0.00178435
*CONN
*I *65:A I *D sky130_fd_sc_hd__clkdlybuf4s50_1
*I *37:B I *D sky130_fd_sc_hd__nand2b_1
*I *42:Q O *D sky130_fd_sc_hd__dfxtp_1
*CAP
1 *65:A 0.000388805
2 *37:B 9.11705e-05
3 *42:Q 0.000360207
4 *16:8 0.000840183
5 *37:B *42:CLK 1.35449e-05
6 *65:A clean_btn 4.26431e-05
7 *65:A *42:CLK 2.84898e-06
8 *39:A2 *37:B 4.45375e-06
9 *42:D *37:B 3.17869e-05
10 *42:D *65:A 8.70662e-06
*RES
1 *42:Q *16:8 18.9094 
2 *16:8 *37:B 16.1712 
3 *16:8 *65:A 23.7819 
*END

*D_NET *17 0.00656764
*CONN
*I *42:CLK I *D sky130_fd_sc_hd__dfxtp_1
*I *43:CLK I *D sky130_fd_sc_hd__dfxtp_1
*I *45:CLK I *D sky130_fd_sc_hd__dfxtp_1
*I *44:CLK I *D sky130_fd_sc_hd__dfxtp_1
*I *62:X O *D sky130_fd_sc_hd__clkdlybuf4s50_1
*CAP
1 *42:CLK 0.000363691
2 *43:CLK 0.000390885
3 *45:CLK 3.9056e-05
4 *44:CLK 2.06324e-05
5 *62:X 0.000407608
6 *17:40 0.00151034
7 *17:23 0.00107779
8 *17:12 0.00071121
9 *42:CLK *37:A_N 0
10 *42:CLK *38:D 1.90335e-05
11 *43:CLK *29:A 2.5971e-05
12 *43:CLK *38:D 0.000294037
13 *17:23 *21:8 6.50586e-05
14 *17:40 *38:A_N 1.92172e-05
15 *17:40 *38:C 0.000411971
16 *17:40 *22:36 0.000164843
17 *34:B *43:CLK 0
18 *37:B *42:CLK 1.35449e-05
19 *39:B1 *42:CLK 0.000172767
20 *42:D *42:CLK 9.76854e-05
21 *43:D *43:CLK 3.17474e-05
22 *44:D *45:CLK 3.31733e-05
23 *44:D *17:23 0.000694523
24 *65:A *42:CLK 2.84898e-06
*RES
1 *62:X *17:12 28.0032 
2 *17:12 *44:CLK 9.82786 
3 *17:12 *17:23 13.5424 
4 *17:23 *45:CLK 14.7506 
5 *17:23 *17:40 21.5383 
6 *17:40 *43:CLK 25.9624 
7 *17:40 *42:CLK 23.5837 
*END

*D_NET *18 0.00339501
*CONN
*I *41:A I *D sky130_fd_sc_hd__ha_1
*I *38:D I *D sky130_fd_sc_hd__nand4bb_1
*I *29:A I *D sky130_fd_sc_hd__inv_1
*I *43:Q O *D sky130_fd_sc_hd__dfxtp_1
*CAP
1 *41:A 0.000229662
2 *38:D 0.000298542
3 *29:A 4.14404e-05
4 *43:Q 0.000124715
5 *18:10 0.000895617
6 *18:6 0.000910012
7 *38:D *37:A_N 3.20069e-06
8 *38:D *20:25 0.000245984
9 *41:A *40:B 7.34948e-06
10 *41:A *63:A 0
11 *41:A *19:6 7.97944e-05
12 *31:A1 *38:D 0
13 *34:A *41:A 0
14 *34:B *41:A 0
15 *40:A *18:10 1.81454e-05
16 *42:CLK *38:D 1.90335e-05
17 *43:D *18:10 3.18826e-06
18 *43:CLK *29:A 2.5971e-05
19 *43:CLK *38:D 0.000294037
20 *5:12 *29:A 8.58349e-05
21 *5:12 *38:D 0.000112484
*RES
1 *43:Q *18:6 11.0817 
2 *18:6 *18:10 12.4332 
3 *18:10 *29:A 15.4854 
4 *18:10 *38:D 25.9624 
5 *18:6 *41:A 24.4053 
*END

*D_NET *19 0.00132573
*CONN
*I *41:B I *D sky130_fd_sc_hd__ha_1
*I *40:B I *D sky130_fd_sc_hd__ha_1
*I *63:X O *D sky130_fd_sc_hd__clkdlybuf4s50_1
*CAP
1 *41:B 0
2 *40:B 0.000282418
3 *63:X 0.000325527
4 *19:6 0.000607945
5 *34:B *40:B 2.26947e-05
6 *41:A *40:B 7.34948e-06
7 *41:A *19:6 7.97944e-05
*RES
1 *63:X *19:6 17.1824 
2 *19:6 *40:B 15.5186 
3 *19:6 *41:B 9.24915 
*END

*D_NET *20 0.00453289
*CONN
*I *31:B1 I *D sky130_fd_sc_hd__a31oi_1
*I *35:A I *D sky130_fd_sc_hd__nor2_1
*I *37:A_N I *D sky130_fd_sc_hd__nand2b_1
*I *38:B_N I *D sky130_fd_sc_hd__nand4bb_1
*I *33:A I *D sky130_fd_sc_hd__nor3b_1
*I *64:X O *D sky130_fd_sc_hd__clkdlybuf4s50_1
*CAP
1 *31:B1 0.000131814
2 *35:A 0.000243549
3 *37:A_N 0.000265486
4 *38:B_N 9.34923e-06
5 *33:A 0
6 *64:X 0.00036147
7 *20:25 0.000621729
8 *20:21 0.000721055
9 *20:12 0.000233255
10 *20:8 0.000595927
11 *31:B1 *30:A 6.08467e-05
12 *38:B_N *38:A_N 6.50727e-05
13 *38:B_N *38:C 6.50727e-05
14 *20:25 *21:10 0
15 *31:A1 *31:B1 6.08467e-05
16 *31:A1 *20:25 0
17 *33:B *31:B1 1.78514e-05
18 *35:B *35:A 0.000111374
19 *38:D *37:A_N 3.20069e-06
20 *38:D *20:25 0.000245984
21 *39:A1 *37:A_N 0.00024163
22 *39:A2 *37:A_N 4.64798e-05
23 *42:CLK *37:A_N 0
24 *45:D *31:B1 0.000122083
25 *5:12 *35:A 4.76794e-05
26 *5:12 *20:21 0.000261135
*RES
1 *64:X *20:8 22.6404 
2 *20:8 *20:12 6.88721 
3 *20:12 *33:A 9.24915 
4 *20:12 *20:21 4.07513 
5 *20:21 *20:25 14.2218 
6 *20:25 *38:B_N 14.4725 
7 *20:25 *37:A_N 21.4861 
8 *20:21 *35:A 15.9044 
9 *20:8 *31:B1 17.9655 
*END

*D_NET *21 0.00324898
*CONN
*I *38:A_N I *D sky130_fd_sc_hd__nand4bb_1
*I *36:A I *D sky130_fd_sc_hd__nor2b_1
*I *31:A2 I *D sky130_fd_sc_hd__a31oi_1
*I *32:A I *D sky130_fd_sc_hd__nor2_1
*I *44:Q O *D sky130_fd_sc_hd__dfxtp_1
*CAP
1 *38:A_N 0.000230865
2 *36:A 0
3 *31:A2 0.000117502
4 *32:A 3.11364e-05
5 *44:Q 0.000375838
6 *21:36 0.000375209
7 *21:10 0.000282259
8 *21:8 0.000653803
9 *31:A2 *30:A 1.41291e-05
10 *32:A *22:12 2.22198e-05
11 *38:A_N *38:C 0.000112031
12 *21:8 *22:8 5.4694e-06
13 *21:10 *22:12 3.60268e-05
14 *21:10 *22:36 6.17603e-05
15 *21:36 *38:C 0.000122378
16 *21:36 *22:36 9.61651e-05
17 *31:A1 *31:A2 0.000264586
18 *31:A1 *32:A 3.31733e-05
19 *38:B_N *38:A_N 6.50727e-05
20 *44:D *31:A2 0.000171273
21 *44:D *21:8 1.65872e-05
22 *45:D *21:8 7.72256e-05
23 *17:23 *21:8 6.50586e-05
24 *17:40 *38:A_N 1.92172e-05
25 *20:25 *21:10 0
*RES
1 *44:Q *21:8 19.464 
2 *21:8 *21:10 3.90826 
3 *21:10 *32:A 14.7506 
4 *21:10 *31:A2 18.2342 
5 *21:8 *21:36 8.57985 
6 *21:36 *36:A 9.24915 
7 *21:36 *38:A_N 16.2902 
*END

*D_NET *22 0.00321647
*CONN
*I *38:C I *D sky130_fd_sc_hd__nand4bb_1
*I *36:B_N I *D sky130_fd_sc_hd__nor2b_1
*I *32:B I *D sky130_fd_sc_hd__nor2_1
*I *30:A I *D sky130_fd_sc_hd__inv_1
*I *45:Q O *D sky130_fd_sc_hd__dfxtp_1
*CAP
1 *38:C 5.00039e-05
2 *36:B_N 0
3 *32:B 0
4 *30:A 0.000215672
5 *45:Q 0.000327998
6 *22:36 0.000223015
7 *22:12 0.000291578
8 *22:8 0.000576916
9 *31:A1 *30:A 4.30532e-05
10 *31:A2 *30:A 1.41291e-05
11 *31:A3 *30:A 9.58242e-05
12 *31:B1 *30:A 6.08467e-05
13 *32:A *22:12 2.22198e-05
14 *38:A_N *38:C 0.000112031
15 *38:B_N *38:C 6.50727e-05
16 *44:D *30:A 7.02172e-06
17 *45:D *22:12 0.000137936
18 *45:D *22:36 7.45404e-05
19 *17:40 *38:C 0.000411971
20 *17:40 *22:36 0.000164843
21 *21:8 *22:8 5.4694e-06
22 *21:10 *22:12 3.60268e-05
23 *21:10 *22:36 6.17603e-05
24 *21:36 *38:C 0.000122378
25 *21:36 *22:36 9.61651e-05
*RES
1 *45:Q *22:8 18.3548 
2 *22:8 *22:12 7.1625 
3 *22:12 *30:A 15.392 
4 *22:12 *32:B 9.24915 
5 *22:8 *22:36 10.2409 
6 *22:36 *36:B_N 9.24915 
7 *22:36 *38:C 13.8548 
*END

*D_NET *25 0.00090662
*CONN
*P clk I
*I *62:A I *D sky130_fd_sc_hd__clkdlybuf4s50_1
*CAP
1 clk 0.00045331
2 *62:A 0.00045331
*RES
1 clk *62:A 27.5092 
*END

*D_NET *26 0.00127347
*CONN
*P noisy_btn I
*I *63:A I *D sky130_fd_sc_hd__clkdlybuf4s50_1
*CAP
1 noisy_btn 0.000623168
2 *63:A 0.000623168
3 *34:A *63:A 2.71337e-05
4 *41:A *63:A 0
*RES
1 noisy_btn *63:A 20.98 
*END

*D_NET *27 0.00128811
*CONN
*P rst I
*I *64:A I *D sky130_fd_sc_hd__clkdlybuf4s50_1
*CAP
1 rst 0.000644053
2 *64:A 0.000644053
*RES
1 rst *64:A 32.1912 
*END

*D_NET *28 0.00129351
*CONN
*P clean_btn O
*I *65:X O *D sky130_fd_sc_hd__clkdlybuf4s50_1
*CAP
1 clean_btn 0.000625432
2 *65:X 0.000625432
3 *65:A clean_btn 4.26431e-05
*RES
1 *65:X clean_btn 27.5047 
*END
