*SPEF "ieee 1481-1999"
*DESIGN "dot_product"
*DATE "15:47:27 Monday April 27, 2026"
*VENDOR "The OpenROAD Project"
*PROGRAM "OpenROAD"
*VERSION "26Q2-339-g0504146ce6"
*DESIGN_FLOW "NAME_SCOPE LOCAL" "PIN_CAP NONE"
*DIVIDER /
*DELIMITER :
*BUS_DELIMITER []
*T_UNIT 1 NS
*C_UNIT 1 PF
*R_UNIT 1 OHM
*L_UNIT 1 HENRY

*NAME_MAP
*1 net1
*2 net2
*3 net3
*4 net4
*5 net5
*6 net6
*7 net7
*8 net8
*9 net9
*10 net10
*11 net11
*12 net12
*13 net13
*14 net14
*15 net15
*16 net16
*17 net17
*18 net18
*19 net19
*20 net20
*21 net21
*22 net22
*23 net23
*24 net24
*25 net25
*26 net26
*27 net27
*28 net28
*29 net29
*30 net30
*31 net31
*32 net32
*33 net33
*34 net34
*35 net35
*36 net36
*37 net37
*38 net38
*39 net39
*40 net40
*41 net41
*42 net42
*43 net43
*44 net44
*45 net45
*46 net46
*47 net47
*48 net48
*49 net49
*50 net50
*51 net51
*52 net52
*53 net53
*54 net54
*55 net55
*56 net56
*57 net57
*58 net58
*59 net59
*60 net60
*61 net61
*62 net62
*63 net63
*64 net64
*65 net65
*66 net66
*67 net67
*68 net68
*69 net69
*70 net70
*71 net71
*72 net72
*73 net73
*74 net74
*75 net75
*76 net76
*77 net77
*78 net78
*79 net79
*80 net80
*81 net81
*82 net82
*83 net83
*84 net84
*85 net85
*86 net86
*87 net87
*88 net88
*89 net89
*90 net90
*91 net91
*92 net92
*93 net93
*94 net94
*95 net95
*96 net96
*97 net97
*98 net98
*99 net99
*100 net100
*101 net101
*102 net102
*103 net103
*104 net104
*105 net105
*106 net106
*107 net107
*108 net108
*109 net109
*110 net110
*111 net111
*112 net112
*113 net113
*114 net114
*115 net115
*116 net116
*117 net117
*118 net118
*119 net119
*120 net120
*121 net121
*122 net122
*123 net123
*124 net124
*125 net125
*126 net126
*127 net127
*128 net128
*129 A[59]
*130 _0001_\[0\]
*131 _0001_\[10\]
*132 _0001_\[11\]
*133 _0001_\[12\]
*134 _0001_\[13\]
*135 _0001_\[14\]
*136 _0001_\[15\]
*137 _0001_\[16\]
*138 _0001_\[17\]
*139 _0001_\[18\]
*140 _0001_\[19\]
*141 _0001_\[1\]
*142 _0001_\[2\]
*143 _0001_\[3\]
*144 _0001_\[4\]
*145 _0001_\[5\]
*146 _0001_\[6\]
*147 _0001_\[7\]
*148 _0001_\[8\]
*149 _0001_\[9\]
*150 _0002_\[0\]
*151 _0002_\[10\]
*152 _0002_\[11\]
*153 _0002_\[12\]
*154 _0002_\[13\]
*155 _0002_\[14\]
*156 _0002_\[15\]
*157 _0002_\[1\]
*158 _0002_\[2\]
*159 _0002_\[3\]
*160 _0002_\[4\]
*161 _0002_\[5\]
*162 _0002_\[6\]
*163 _0002_\[7\]
*164 _0002_\[8\]
*165 _0002_\[9\]
*166 _0003_\[0\]
*167 _0003_\[10\]
*168 _0003_\[11\]
*169 _0003_\[12\]
*170 _0003_\[13\]
*171 _0003_\[14\]
*172 _0003_\[15\]
*173 _0003_\[1\]
*174 _0003_\[2\]
*175 _0003_\[3\]
*176 _0003_\[4\]
*177 _0003_\[5\]
*178 _0003_\[6\]
*179 _0003_\[7\]
*180 _0003_\[8\]
*181 _0003_\[9\]
*182 _0004_\[0\]
*183 _0004_\[10\]
*184 _0004_\[11\]
*185 _0004_\[12\]
*186 _0004_\[13\]
*187 _0004_\[14\]
*188 _0004_\[15\]
*189 _0004_\[1\]
*190 _0004_\[2\]
*191 _0004_\[3\]
*192 _0004_\[4\]
*193 _0004_\[5\]
*194 _0004_\[6\]
*195 _0004_\[7\]
*196 _0004_\[8\]
*197 _0004_\[9\]
*198 _0005_\[0\]
*199 _0005_\[10\]
*200 _0005_\[11\]
*201 _0005_\[12\]
*202 _0005_\[13\]
*203 _0005_\[14\]
*204 _0005_\[15\]
*205 _0005_\[1\]
*206 _0005_\[2\]
*207 _0005_\[3\]
*208 _0005_\[4\]
*209 _0005_\[5\]
*210 _0005_\[6\]
*211 _0005_\[7\]
*212 _0005_\[8\]
*213 _0005_\[9\]
*214 _0006_\[0\]
*215 _0006_\[10\]
*216 _0006_\[11\]
*217 _0006_\[12\]
*218 _0006_\[13\]
*219 _0006_\[14\]
*220 _0006_\[15\]
*221 _0006_\[1\]
*222 _0006_\[2\]
*223 _0006_\[3\]
*224 _0006_\[4\]
*225 _0006_\[5\]
*226 _0006_\[6\]
*227 _0006_\[7\]
*228 _0006_\[8\]
*229 _0006_\[9\]
*230 _0007_\[0\]
*231 _0007_\[10\]
*232 _0007_\[11\]
*233 _0007_\[12\]
*234 _0007_\[13\]
*235 _0007_\[14\]
*236 _0007_\[15\]
*237 _0007_\[1\]
*238 _0007_\[2\]
*239 _0007_\[3\]
*240 _0007_\[4\]
*241 _0007_\[5\]
*242 _0007_\[6\]
*243 _0007_\[7\]
*244 _0007_\[8\]
*245 _0007_\[9\]
*246 _0008_\[0\]
*247 _0008_\[10\]
*248 _0008_\[11\]
*249 _0008_\[12\]
*250 _0008_\[13\]
*251 _0008_\[14\]
*252 _0008_\[15\]
*253 _0008_\[1\]
*254 _0008_\[2\]
*255 _0008_\[3\]
*256 _0008_\[4\]
*257 _0008_\[5\]
*258 _0008_\[6\]
*259 _0008_\[7\]
*260 _0008_\[8\]
*261 _0008_\[9\]
*262 _0009_\[0\]
*263 _0009_\[10\]
*264 _0009_\[11\]
*265 _0009_\[12\]
*266 _0009_\[13\]
*267 _0009_\[14\]
*268 _0009_\[15\]
*269 _0009_\[1\]
*270 _0009_\[2\]
*271 _0009_\[3\]
*272 _0009_\[4\]
*273 _0009_\[5\]
*274 _0009_\[6\]
*275 _0009_\[7\]
*276 _0009_\[8\]
*277 _0009_\[9\]
*278 _0010_
*279 _0011_
*280 _0012_\[0\]
*281 _0012_\[10\]
*282 _0012_\[11\]
*283 _0012_\[12\]
*284 _0012_\[13\]
*285 _0012_\[14\]
*286 _0012_\[15\]
*287 _0012_\[16\]
*288 _0012_\[17\]
*289 _0012_\[18\]
*290 _0012_\[19\]
*291 _0012_\[1\]
*292 _0012_\[2\]
*293 _0012_\[3\]
*294 _0012_\[4\]
*295 _0012_\[5\]
*296 _0012_\[6\]
*297 _0012_\[7\]
*298 _0012_\[8\]
*299 _0012_\[9\]
*300 _0013_\[0\]
*301 _0013_\[10\]
*302 _0013_\[11\]
*303 _0013_\[12\]
*304 _0013_\[13\]
*305 _0013_\[14\]
*306 _0013_\[15\]
*307 _0013_\[16\]
*308 _0013_\[17\]
*309 _0013_\[18\]
*310 _0013_\[19\]
*311 _0013_\[1\]
*312 _0013_\[2\]
*313 _0013_\[3\]
*314 _0013_\[4\]
*315 _0013_\[5\]
*316 _0013_\[6\]
*317 _0013_\[7\]
*318 _0013_\[8\]
*319 _0013_\[9\]
*320 _0014_
*321 _0015_
*322 _0016_
*323 _0023_
*324 _0024_
*325 _0025_
*326 _0027_
*327 _0028_
*328 _0032_
*329 _0033_
*330 _0035_
*331 _0036_
*332 _0037_
*333 _0041_
*334 _0042_
*335 _0043_
*336 _0044_
*337 _0048_
*338 _0049_
*339 _0050_
*340 _0052_
*341 _0053_
*342 _0057_
*343 _0058_
*344 _0060_
*345 _0061_
*346 _0062_
*347 _0068_
*348 _0069_
*349 _0070_
*350 _0071_
*351 _0074_
*352 _0075_
*353 _0077_
*354 _0078_
*355 _0080_
*356 _0081_
*357 _0083_
*358 _0084_
*359 _0089_
*360 _0091_
*361 _0092_
*362 _0093_
*363 _0099_
*364 _0104_
*365 _0105_
*366 _0106_
*367 _0107_
*368 _0111_
*369 _0112_
*370 _0113_
*371 _0114_
*372 _0117_
*373 _0120_
*374 _0121_
*375 _0123_
*376 _0124_
*377 _0130_
*378 _0132_
*379 _0133_
*380 _0134_
*381 _0140_
*382 _0141_
*383 _0146_
*384 _0147_
*385 _0148_
*386 _0152_
*387 _0153_
*388 _0155_
*389 _0156_
*390 _0163_
*391 _0164_
*392 _0166_
*393 _0169_
*394 _0171_
*395 _0175_
*396 _0176_
*397 _0178_
*398 _0179_
*399 _0180_
*400 _0186_
*401 _0187_
*402 _0191_
*403 _0192_
*404 _0193_
*405 _0199_
*406 _0200_
*407 _0203_
*408 _0206_
*409 _0207_
*410 _0210_
*411 _0211_
*412 _0216_
*413 _0217_
*414 _0219_
*415 _0220_
*416 _0221_
*417 _0228_
*418 _0232_
*419 _0233_
*420 _0234_
*421 _0239_
*422 _0240_
*423 _0244_
*424 _0247_
*425 _0250_
*426 _0251_
*427 _0255_
*428 _0257_
*429 _0259_
*430 _0267_
*431 _0270_
*432 _0271_
*433 _0272_
*434 _0277_
*435 _0278_
*436 _0281_
*437 _0282_
*438 _0283_
*439 _0287_
*440 _0289_
*441 _0290_
*442 _0293_
*443 _0298_
*444 _0299_
*445 _0300_
*446 _0301_
*447 _0303_
*448 _0305_
*449 _0310_
*450 _0311_
*451 _0313_
*452 _0315_
*453 _0320_
*454 _0321_
*455 _0323_
*456 _0324_
*457 _0326_
*458 _0329_
*459 _0330_
*460 _0331_
*461 _0332_
*462 _0334_
*463 _0335_
*464 _0336_
*465 _0338_
*466 _0343_
*467 _0344_
*468 _0352_
*469 _0354_
*470 _0356_
*471 _0357_
*472 _0359_
*473 _0361_
*474 _0367_
*475 _0371_
*476 _0375_
*477 _0378_
*478 _0384_
*479 _0388_
*480 _0391_
*481 _0399_
*482 _0400_
*483 _0404_
*484 _0405_
*485 _0407_
*486 _0409_
*487 _0413_
*488 _0414_
*489 _0418_
*490 _0420_
*491 _0422_
*492 _0423_
*493 _0425_
*494 _0428_
*495 _0430_
*496 _0433_
*497 _0434_
*498 _0436_
*499 _0437_
*500 _0438_
*501 _0439_
*502 _0440_
*503 _0441_
*504 _0442_
*505 _0444_
*506 _0445_
*507 _0450_
*508 _0455_
*509 _0456_
*510 _0457_
*511 _0458_
*512 _0460_
*513 _0461_
*514 _0463_
*515 _0465_
*516 _0467_
*517 _0471_
*518 _0472_
*519 _0474_
*520 _0479_
*521 _0480_
*522 _0486_
*523 _0487_
*524 _0488_
*525 _0489_
*526 _0493_
*527 _0494_
*528 _0498_
*529 _0499_
*530 _0500_
*531 _0502_
*532 _0505_
*533 _0506_
*534 _0508_
*535 _0509_
*536 _0512_
*537 _0513_
*538 _0515_
*539 _0520_
*540 _0523_
*541 _0525_
*542 _0528_
*543 _0532_
*544 _0536_
*545 _0537_
*546 _0538_
*547 _0540_
*548 _0541_
*549 _0542_
*550 _0544_
*551 _0547_
*552 _0548_
*553 _0551_
*554 _0553_
*555 _0554_
*556 _0557_
*557 _0558_
*558 _0559_
*559 _0561_
*560 _0562_
*561 _0566_
*562 _0569_
*563 _0570_
*564 _0571_
*565 _0573_
*566 _0578_
*567 _0580_
*568 _0583_
*569 _0584_
*570 _0585_
*571 _0587_
*572 _0590_
*573 _0591_
*574 _0593_
*575 _0594_
*576 _0595_
*577 _0600_
*578 _0601_
*579 _0603_
*580 _0604_
*581 _0605_
*582 _0607_
*583 _0608_
*584 _0612_
*585 _0615_
*586 _0616_
*587 _0617_
*588 _0626_
*589 _0627_
*590 _0633_
*591 _0634_
*592 _0637_
*593 _0640_
*594 _0641_
*595 _0644_
*596 _0645_
*597 _0646_
*598 _0648_
*599 _0649_
*600 _0653_
*601 _0654_
*602 _0657_
*603 _0658_
*604 _0666_
*605 _0667_
*606 _0672_
*607 _0673_
*608 _0677_
*609 _0680_
*610 _0683_
*611 _0684_
*612 _0686_
*613 _0687_
*614 _0693_
*615 _0695_
*616 _0696_
*617 _0704_
*618 _0705_
*619 _0710_
*620 _0711_
*621 _0714_
*622 _0720_
*623 _0721_
*624 _0723_
*625 _0724_
*626 _0730_
*627 _0731_
*628 _0732_
*629 _0740_
*630 _0741_
*631 _0745_
*632 _0746_
*633 _0747_
*634 _0749_
*635 _0751_
*636 _0757_
*637 _0758_
*638 _0760_
*639 _0761_
*640 _0763_
*641 _0764_
*642 _0768_
*643 _0770_
*644 _0773_
*645 _0775_
*646 _0776_
*647 _0780_
*648 _0789_
*649 _0790_
*650 _0792_
*651 _0796_
*652 _0799_
*653 _0801_
*654 _0804_
*655 _0806_
*656 _0807_
*657 _0811_
*658 _0815_
*659 _0818_
*660 _0831_
*661 _0843_
*662 _0844_
*663 _0845_
*664 _0848_
*665 _0849_
*666 _0852_
*667 _0854_
*668 _0857_
*669 _0858_
*670 _0859_
*671 _0860_
*672 _0861_
*673 _0862_
*674 _0867_
*675 _0869_
*676 _0872_
*677 _0876_
*678 _0877_
*679 _0878_
*680 _0879_
*681 _0881_
*682 _0883_
*683 _0884_
*684 _0885_
*685 _0886_
*686 _0888_
*687 _0890_
*688 _0892_
*689 _0895_
*690 _0896_
*691 _0900_
*692 _0901_
*693 _0905_
*694 _0906_
*695 _0910_
*696 _0913_
*697 _0914_
*698 _0916_
*699 _0919_
*700 _0924_
*701 _0926_
*702 _0929_
*703 _0930_
*704 _0936_
*705 _0937_
*706 _0938_
*707 _0939_
*708 _0943_
*709 _0944_
*710 _0948_
*711 _0949_
*712 _0950_
*713 _0951_
*714 _0955_
*715 _0956_
*716 _0958_
*717 _0965_
*718 _0967_
*719 _0971_
*720 _0974_
*721 _0976_
*722 _0979_
*723 _0983_
*724 _0985_
*725 _0988_
*726 _0989_
*727 _0991_
*728 _0992_
*729 _0993_
*730 _0998_
*731 _1001_
*732 _1003_
*733 _1004_
*734 _1006_
*735 _1007_
*736 _1010_
*737 _1011_
*738 _1012_
*739 _1014_
*740 _1015_
*741 _1019_
*742 _1022_
*743 _1023_
*744 _1024_
*745 _1026_
*746 _1030_
*747 _1035_
*748 _1036_
*749 _1037_
*750 _1039_
*751 _1042_
*752 _1043_
*753 _1055_
*754 _1056_
*755 _1057_
*756 _1059_
*757 _1060_
*758 _1065_
*759 _1068_
*760 _1069_
*761 _1079_
*762 _1080_
*763 _1081_
*764 _1087_
*765 _1088_
*766 _1098_
*767 _1099_
*768 _1100_
*769 _1102_
*770 _1103_
*771 _1107_
*772 _1110_
*773 _1111_
*774 _1118_
*775 _1121_
*776 _1122_
*777 _1123_
*778 _1128_
*779 _1129_
*780 _1131_
*781 _1133_
*782 _1138_
*783 _1140_
*784 _1141_
*785 _1142_
*786 _1144_
*787 _1145_
*788 _1149_
*789 _1151_
*790 _1152_
*791 _1156_
*792 _1161_
*793 _1163_
*794 _1164_
*795 _1169_
*796 _1170_
*797 _1173_
*798 _1174_
*799 _1176_
*800 _1177_
*801 _1180_
*802 _1181_
*803 _1182_
*804 _1183_
*805 _1185_
*806 _1186_
*807 _1188_
*808 _1190_
*809 _1197_
*810 _1198_
*811 _1202_
*812 _1203_
*813 _1204_
*814 _1205_
*815 _1207_
*816 _1209_
*817 _1214_
*818 _1215_
*819 _1217_
*820 _1220_
*821 _1222_
*822 _1224_
*823 _1229_
*824 _1231_
*825 _1232_
*826 _1236_
*827 _1237_
*828 _1241_
*829 _1247_
*830 _1248_
*831 _1250_
*832 _1255_
*833 _1258_
*834 _1263_
*835 _1265_
*836 _1269_
*837 _1273_
*838 _1276_
*839 _1289_
*840 _1294_
*841 _1303_
*842 _1304_
*843 _1307_
*844 _1308_
*845 _1311_
*846 _1313_
*847 _1316_
*848 _1317_
*849 _1318_
*850 _1319_
*851 _1320_
*852 _1321_
*853 _1326_
*854 _1328_
*855 _1331_
*856 _1335_
*857 _1336_
*858 _1337_
*859 _1338_
*860 _1340_
*861 _1342_
*862 _1343_
*863 _1344_
*864 _1345_
*865 _1347_
*866 _1349_
*867 _1351_
*868 _1354_
*869 _1355_
*870 _1359_
*871 _1360_
*872 _1364_
*873 _1365_
*874 _1369_
*875 _1372_
*876 _1373_
*877 _1375_
*878 _1378_
*879 _1383_
*880 _1385_
*881 _1388_
*882 _1389_
*883 _1395_
*884 _1396_
*885 _1397_
*886 _1398_
*887 _1402_
*888 _1403_
*889 _1407_
*890 _1408_
*891 _1409_
*892 _1410_
*893 _1414_
*894 _1415_
*895 _1417_
*896 _1424_
*897 _1426_
*898 _1430_
*899 _1433_
*900 _1435_
*901 _1438_
*902 _1442_
*903 _1444_
*904 _1447_
*905 _1448_
*906 _1450_
*907 _1451_
*908 _1452_
*909 _1457_
*910 _1460_
*911 _1462_
*912 _1463_
*913 _1465_
*914 _1466_
*915 _1469_
*916 _1470_
*917 _1471_
*918 _1473_
*919 _1474_
*920 _1478_
*921 _1481_
*922 _1482_
*923 _1483_
*924 _1485_
*925 _1489_
*926 _1494_
*927 _1495_
*928 _1496_
*929 _1498_
*930 _1501_
*931 _1502_
*932 _1514_
*933 _1515_
*934 _1516_
*935 _1518_
*936 _1519_
*937 _1524_
*938 _1527_
*939 _1528_
*940 _1538_
*941 _1539_
*942 _1540_
*943 _1546_
*944 _1547_
*945 _1557_
*946 _1558_
*947 _1559_
*948 _1561_
*949 _1562_
*950 _1566_
*951 _1569_
*952 _1570_
*953 _1577_
*954 _1580_
*955 _1581_
*956 _1582_
*957 _1587_
*958 _1588_
*959 _1590_
*960 _1592_
*961 _1597_
*962 _1599_
*963 _1600_
*964 _1601_
*965 _1603_
*966 _1604_
*967 _1608_
*968 _1610_
*969 _1611_
*970 _1615_
*971 _1620_
*972 _1622_
*973 _1623_
*974 _1628_
*975 _1629_
*976 _1632_
*977 _1633_
*978 _1635_
*979 _1636_
*980 _1639_
*981 _1640_
*982 _1641_
*983 _1642_
*984 _1644_
*985 _1645_
*986 _1647_
*987 _1649_
*988 _1656_
*989 _1657_
*990 _1661_
*991 _1662_
*992 _1663_
*993 _1664_
*994 _1666_
*995 _1668_
*996 _1673_
*997 _1674_
*998 _1676_
*999 _1679_
*1000 _1681_
*1001 _1683_
*1002 _1688_
*1003 _1690_
*1004 _1691_
*1005 _1695_
*1006 _1696_
*1007 _1700_
*1008 _1706_
*1009 _1707_
*1010 _1709_
*1011 _1714_
*1012 _1717_
*1013 _1722_
*1014 _1724_
*1015 _1728_
*1016 _1732_
*1017 _1735_
*1018 _1748_
*1019 _1753_
*1020 _1761_
*1021 _1762_
*1022 _1763_
*1023 _1766_
*1024 _1767_
*1025 _1770_
*1026 _1772_
*1027 _1775_
*1028 _1776_
*1029 _1777_
*1030 _1778_
*1031 _1779_
*1032 _1781_
*1033 _1785_
*1034 _1787_
*1035 _1790_
*1036 _1792_
*1037 _1795_
*1038 _1796_
*1039 _1798_
*1040 _1799_
*1041 _1800_
*1042 _1801_
*1043 _1802_
*1044 _1807_
*1045 _1809_
*1046 _1812_
*1047 _1817_
*1048 _1818_
*1049 _1819_
*1050 _1820_
*1051 _1822_
*1052 _1823_
*1053 _1825_
*1054 _1827_
*1055 _1829_
*1056 _1833_
*1057 _1834_
*1058 _1839_
*1059 _1841_
*1060 _1844_
*1061 _1845_
*1062 _1851_
*1063 _1852_
*1064 _1853_
*1065 _1854_
*1066 _1858_
*1067 _1859_
*1068 _1863_
*1069 _1864_
*1070 _1865_
*1071 _1867_
*1072 _1870_
*1073 _1871_
*1074 _1873_
*1075 _1875_
*1076 _1881_
*1077 _1883_
*1078 _1888_
*1079 _1891_
*1080 _1893_
*1081 _1896_
*1082 _1900_
*1083 _1902_
*1084 _1905_
*1085 _1906_
*1086 _1908_
*1087 _1909_
*1088 _1910_
*1089 _1912_
*1090 _1915_
*1091 _1920_
*1092 _1921_
*1093 _1923_
*1094 _1924_
*1095 _1927_
*1096 _1928_
*1097 _1929_
*1098 _1931_
*1099 _1932_
*1100 _1937_
*1101 _1939_
*1102 _1940_
*1103 _1941_
*1104 _1943_
*1105 _1947_
*1106 _1952_
*1107 _1953_
*1108 _1954_
*1109 _1956_
*1110 _1959_
*1111 _1960_
*1112 _1972_
*1113 _1973_
*1114 _1975_
*1115 _1976_
*1116 _1981_
*1117 _1984_
*1118 _1985_
*1119 _1986_
*1120 _1992_
*1121 _1996_
*1122 _1997_
*1123 _1998_
*1124 _2004_
*1125 _2005_
*1126 _2015_
*1127 _2016_
*1128 _2018_
*1129 _2019_
*1130 _2023_
*1131 _2024_
*1132 _2027_
*1133 _2028_
*1134 _2035_
*1135 _2038_
*1136 _2039_
*1137 _2040_
*1138 _2045_
*1139 _2046_
*1140 _2048_
*1141 _2050_
*1142 _2055_
*1143 _2057_
*1144 _2058_
*1145 _2060_
*1146 _2061_
*1147 _2066_
*1148 _2068_
*1149 _2069_
*1150 _2073_
*1151 _2078_
*1152 _2080_
*1153 _2081_
*1154 _2086_
*1155 _2087_
*1156 _2090_
*1157 _2091_
*1158 _2093_
*1159 _2094_
*1160 _2097_
*1161 _2098_
*1162 _2100_
*1163 _2101_
*1164 _2107_
*1165 _2108_
*1166 _2109_
*1167 _2117_
*1168 _2118_
*1169 _2122_
*1170 _2123_
*1171 _2124_
*1172 _2125_
*1173 _2127_
*1174 _2129_
*1175 _2134_
*1176 _2135_
*1177 _2137_
*1178 _2138_
*1179 _2140_
*1180 _2141_
*1181 _2145_
*1182 _2150_
*1183 _2153_
*1184 _2157_
*1185 _2166_
*1186 _2167_
*1187 _2169_
*1188 _2178_
*1189 _2179_
*1190 _2183_
*1191 _2184_
*1192 _2188_
*1193 _2192_
*1194 _2195_
*1195 _2220_
*1196 _2221_
*1197 _2222_
*1198 _2225_
*1199 _2226_
*1200 _2229_
*1201 _2231_
*1202 _2234_
*1203 _2235_
*1204 _2236_
*1205 _2237_
*1206 _2238_
*1207 _2239_
*1208 _2244_
*1209 _2246_
*1210 _2249_
*1211 _2253_
*1212 _2254_
*1213 _2255_
*1214 _2256_
*1215 _2258_
*1216 _2260_
*1217 _2261_
*1218 _2262_
*1219 _2263_
*1220 _2265_
*1221 _2267_
*1222 _2269_
*1223 _2272_
*1224 _2273_
*1225 _2277_
*1226 _2278_
*1227 _2282_
*1228 _2283_
*1229 _2287_
*1230 _2290_
*1231 _2291_
*1232 _2293_
*1233 _2296_
*1234 _2301_
*1235 _2303_
*1236 _2306_
*1237 _2307_
*1238 _2313_
*1239 _2314_
*1240 _2315_
*1241 _2316_
*1242 _2320_
*1243 _2321_
*1244 _2325_
*1245 _2326_
*1246 _2327_
*1247 _2328_
*1248 _2332_
*1249 _2333_
*1250 _2335_
*1251 _2342_
*1252 _2344_
*1253 _2348_
*1254 _2351_
*1255 _2353_
*1256 _2356_
*1257 _2360_
*1258 _2362_
*1259 _2365_
*1260 _2366_
*1261 _2368_
*1262 _2369_
*1263 _2370_
*1264 _2375_
*1265 _2378_
*1266 _2380_
*1267 _2381_
*1268 _2383_
*1269 _2384_
*1270 _2387_
*1271 _2388_
*1272 _2389_
*1273 _2391_
*1274 _2392_
*1275 _2396_
*1276 _2399_
*1277 _2400_
*1278 _2401_
*1279 _2403_
*1280 _2407_
*1281 _2412_
*1282 _2413_
*1283 _2414_
*1284 _2416_
*1285 _2419_
*1286 _2420_
*1287 _2432_
*1288 _2433_
*1289 _2434_
*1290 _2436_
*1291 _2437_
*1292 _2442_
*1293 _2445_
*1294 _2446_
*1295 _2456_
*1296 _2457_
*1297 _2458_
*1298 _2464_
*1299 _2465_
*1300 _2475_
*1301 _2476_
*1302 _2477_
*1303 _2479_
*1304 _2480_
*1305 _2484_
*1306 _2487_
*1307 _2488_
*1308 _2495_
*1309 _2498_
*1310 _2499_
*1311 _2500_
*1312 _2505_
*1313 _2506_
*1314 _2508_
*1315 _2510_
*1316 _2515_
*1317 _2517_
*1318 _2518_
*1319 _2519_
*1320 _2521_
*1321 _2522_
*1322 _2526_
*1323 _2528_
*1324 _2529_
*1325 _2533_
*1326 _2538_
*1327 _2540_
*1328 _2541_
*1329 _2546_
*1330 _2547_
*1331 _2550_
*1332 _2551_
*1333 _2553_
*1334 _2554_
*1335 _2557_
*1336 _2558_
*1337 _2559_
*1338 _2560_
*1339 _2562_
*1340 _2563_
*1341 _2565_
*1342 _2567_
*1343 _2574_
*1344 _2575_
*1345 _2579_
*1346 _2580_
*1347 _2581_
*1348 _2582_
*1349 _2584_
*1350 _2586_
*1351 _2591_
*1352 _2592_
*1353 _2594_
*1354 _2597_
*1355 _2599_
*1356 _2601_
*1357 _2606_
*1358 _2608_
*1359 _2609_
*1360 _2613_
*1361 _2614_
*1362 _2618_
*1363 _2624_
*1364 _2625_
*1365 _2627_
*1366 _2632_
*1367 _2635_
*1368 _2640_
*1369 _2642_
*1370 _2646_
*1371 _2650_
*1372 _2653_
*1373 _2666_
*1374 _2671_
*1375 _2679_
*1376 _2680_
*1377 _2681_
*1378 _2684_
*1379 _2685_
*1380 _2688_
*1381 _2690_
*1382 _2693_
*1383 _2694_
*1384 _2695_
*1385 _2696_
*1386 _2697_
*1387 _2698_
*1388 _2703_
*1389 _2705_
*1390 _2708_
*1391 _2712_
*1392 _2713_
*1393 _2714_
*1394 _2715_
*1395 _2717_
*1396 _2719_
*1397 _2720_
*1398 _2721_
*1399 _2722_
*1400 _2724_
*1401 _2726_
*1402 _2728_
*1403 _2731_
*1404 _2732_
*1405 _2736_
*1406 _2737_
*1407 _2741_
*1408 _2742_
*1409 _2746_
*1410 _2749_
*1411 _2750_
*1412 _2752_
*1413 _2755_
*1414 _2760_
*1415 _2762_
*1416 _2765_
*1417 _2766_
*1418 _2772_
*1419 _2773_
*1420 _2774_
*1421 _2775_
*1422 _2779_
*1423 _2780_
*1424 _2784_
*1425 _2785_
*1426 _2786_
*1427 _2787_
*1428 _2791_
*1429 _2792_
*1430 _2794_
*1431 _2801_
*1432 _2803_
*1433 _2807_
*1434 _2810_
*1435 _2812_
*1436 _2815_
*1437 _2819_
*1438 _2821_
*1439 _2824_
*1440 _2825_
*1441 _2827_
*1442 _2828_
*1443 _2829_
*1444 _2834_
*1445 _2837_
*1446 _2839_
*1447 _2840_
*1448 _2842_
*1449 _2843_
*1450 _2846_
*1451 _2847_
*1452 _2848_
*1453 _2850_
*1454 _2851_
*1455 _2855_
*1456 _2858_
*1457 _2859_
*1458 _2860_
*1459 _2862_
*1460 _2866_
*1461 _2871_
*1462 _2872_
*1463 _2873_
*1464 _2875_
*1465 _2878_
*1466 _2879_
*1467 _2891_
*1468 _2892_
*1469 _2893_
*1470 _2895_
*1471 _2896_
*1472 _2901_
*1473 _2904_
*1474 _2905_
*1475 _2915_
*1476 _2916_
*1477 _2917_
*1478 _2923_
*1479 _2924_
*1480 _2934_
*1481 _2935_
*1482 _2936_
*1483 _2938_
*1484 _2939_
*1485 _2943_
*1486 _2946_
*1487 _2947_
*1488 _2954_
*1489 _2957_
*1490 _2958_
*1491 _2959_
*1492 _2964_
*1493 _2965_
*1494 _2967_
*1495 _2969_
*1496 _2974_
*1497 _2976_
*1498 _2977_
*1499 _2978_
*1500 _2980_
*1501 _2981_
*1502 _2985_
*1503 _2987_
*1504 _2988_
*1505 _2992_
*1506 _2997_
*1507 _2999_
*1508 _3000_
*1509 _3005_
*1510 _3006_
*1511 _3009_
*1512 _3010_
*1513 _3012_
*1514 _3013_
*1515 _3016_
*1516 _3017_
*1517 _3018_
*1518 _3019_
*1519 _3021_
*1520 _3022_
*1521 _3024_
*1522 _3026_
*1523 _3033_
*1524 _3034_
*1525 _3038_
*1526 _3039_
*1527 _3040_
*1528 _3041_
*1529 _3043_
*1530 _3045_
*1531 _3050_
*1532 _3051_
*1533 _3053_
*1534 _3056_
*1535 _3058_
*1536 _3060_
*1537 _3065_
*1538 _3067_
*1539 _3068_
*1540 _3072_
*1541 _3073_
*1542 _3077_
*1543 _3083_
*1544 _3084_
*1545 _3086_
*1546 _3091_
*1547 _3094_
*1548 _3099_
*1549 _3101_
*1550 _3105_
*1551 _3109_
*1552 _3112_
*1553 _3125_
*1554 _3130_
*1555 _3139_
*1556 _3142_
*1557 _3144_
*1558 _3146_
*1559 _3148_
*1560 _3149_
*1561 _3154_
*1562 _3156_
*1563 _3158_
*1564 _3160_
*1565 _3161_
*1566 _3162_
*1567 _3167_
*1568 _3169_
*1569 _3171_
*1570 _3174_
*1571 _3175_
*1572 _3183_
*1573 _3185_
*1574 _3187_
*1575 _3190_
*1576 _3191_
*1577 _3196_
*1578 _3201_
*1579 _3203_
*1580 _3205_
*1581 _3208_
*1582 _3209_
*1583 _3211_
*1584 _3217_
*1585 _3219_
*1586 _3221_
*1587 _3222_
*1588 _3225_
*1589 _3227_
*1590 _3233_
*1591 _3237_
*1592 _3239_
*1593 _3241_
*1594 _3242_
*1595 _3245_
*1596 _3247_
*1597 _3248_
*1598 _3249_
*1599 _3250_
*1600 _3255_
*1601 _3257_
*1602 _3259_
*1603 _3262_
*1604 _3263_
*1605 _3271_
*1606 _3272_
*1607 _3276_
*1608 _3278_
*1609 _3280_
*1610 _3281_
*1611 _3284_
*1612 _3286_
*1613 _3288_
*1614 _3289_
*1615 _3294_
*1616 _3296_
*1617 _3298_
*1618 _3299_
*1619 _3302_
*1620 _3304_
*1621 _3310_
*1622 _3314_
*1623 _3316_
*1624 _3318_
*1625 _3319_
*1626 _3322_
*1627 _3324_
*1628 _3325_
*1629 _3326_
*1630 _3331_
*1631 _3333_
*1632 _3335_
*1633 _3338_
*1634 _3339_
*1635 _3346_
*1636 _3347_
*1637 _3351_
*1638 _3353_
*1639 _3355_
*1640 _3356_
*1641 _3359_
*1642 _3361_
*1643 _3363_
*1644 _3364_
*1645 _3367_
*1646 _3369_
*1647 _3371_
*1648 _3373_
*1649 _3374_
*1650 _3377_
*1651 _3379_
*1652 _3384_
*1653 _3388_
*1654 _3391_
*1655 _3393_
*1656 _3394_
*1657 _3397_
*1658 _3399_
*1659 _3400_
*1660 _3401_
*1661 _3406_
*1662 _3408_
*1663 _3411_
*1664 _3413_
*1665 _3423_
*1666 _3428_
*1667 _3431_
*1668 _3438_
*1669 _3441_
*1670 _3443_
*1671 _3445_
*1672 _3448_
*1673 _3453_
*1674 _3455_
*1675 _3457_
*1676 _3460_
*1677 _3461_
*1678 _3466_
*1679 _3468_
*1680 _3470_
*1681 _3473_
*1682 _3474_
*1683 _3482_
*1684 _3484_
*1685 _3486_
*1686 _3489_
*1687 _3490_
*1688 _3495_
*1689 _3500_
*1690 _3502_
*1691 _3504_
*1692 _3507_
*1693 _3508_
*1694 _3510_
*1695 _3516_
*1696 _3518_
*1697 _3520_
*1698 _3521_
*1699 _3524_
*1700 _3526_
*1701 _3532_
*1702 _3536_
*1703 _3538_
*1704 _3540_
*1705 _3541_
*1706 _3544_
*1707 _3546_
*1708 _3547_
*1709 _3548_
*1710 _3549_
*1711 _3554_
*1712 _3556_
*1713 _3558_
*1714 _3561_
*1715 _3562_
*1716 _3570_
*1717 _3571_
*1718 _3575_
*1719 _3577_
*1720 _3579_
*1721 _3580_
*1722 _3583_
*1723 _3585_
*1724 _3587_
*1725 _3588_
*1726 _3593_
*1727 _3595_
*1728 _3597_
*1729 _3598_
*1730 _3601_
*1731 _3603_
*1732 _3609_
*1733 _3613_
*1734 _3615_
*1735 _3617_
*1736 _3618_
*1737 _3621_
*1738 _3623_
*1739 _3624_
*1740 _3625_
*1741 _3630_
*1742 _3632_
*1743 _3634_
*1744 _3637_
*1745 _3638_
*1746 _3645_
*1747 _3646_
*1748 _3650_
*1749 _3652_
*1750 _3654_
*1751 _3655_
*1752 _3658_
*1753 _3660_
*1754 _3662_
*1755 _3663_
*1756 _3666_
*1757 _3668_
*1758 _3670_
*1759 _3672_
*1760 _3673_
*1761 _3676_
*1762 _3678_
*1763 _3683_
*1764 _3687_
*1765 _3690_
*1766 _3692_
*1767 _3693_
*1768 _3696_
*1769 _3698_
*1770 _3699_
*1771 _3700_
*1772 _3705_
*1773 _3707_
*1774 _3710_
*1775 _3712_
*1776 _3722_
*1777 _3727_
*1778 _3730_
*1779 _3740_
*1780 _3741_
*1781 _3746_
*1782 _3751_
*1783 _3753_
*1784 _3767_
*1785 _3769_
*1786 _3774_
*1787 _3784_
*1788 _3786_
*1789 _3803_
*1790 _3805_
*1791 _3810_
*1792 _3820_
*1793 _3822_
*1794 _3827_
*1795 _3839_
*1796 _3841_
*1797 _3851_
*1798 _3855_
*1799 _3856_
*1800 _3857_
*1801 _3876_
*1802 _3878_
*1803 _3888_
*1804 _3893_
*1805 _3898_
*1806 _3899_
*1807 _3900_
*1808 _3903_
*1809 _3904_
*1810 _3906_
*1811 _3907_
*1812 _3910_
*1813 _3912_
*1814 _3913_
*1815 _3914_
*1816 _3916_
*1817 _3917_
*1818 _3918_
*1819 _3920_
*1820 _3924_
*1821 _3927_
*1822 _3928_
*1823 _3929_
*1824 _3931_
*1825 _3932_
*1826 _3936_
*1827 _3937_
*1828 _3938_
*1829 _3939_
*1830 _3946_
*1831 _3947_
*1832 _3948_
*1833 _3950_
*1834 _3951_
*1835 _3955_
*1836 _3956_
*1837 _3958_
*1838 _3959_
*1839 _3960_
*1840 _3964_
*1841 _3965_
*1842 _3966_
*1843 _3967_
*1844 _3971_
*1845 _3972_
*1846 _3973_
*1847 _3975_
*1848 _3976_
*1849 _3980_
*1850 _3981_
*1851 _3983_
*1852 _3984_
*1853 _3985_
*1854 _3991_
*1855 _3992_
*1856 _3993_
*1857 _3994_
*1858 _3997_
*1859 _3998_
*1860 _4000_
*1861 _4001_
*1862 _4003_
*1863 _4004_
*1864 _4006_
*1865 _4007_
*1866 _4012_
*1867 _4014_
*1868 _4015_
*1869 _4016_
*1870 _4022_
*1871 _4027_
*1872 _4028_
*1873 _4029_
*1874 _4030_
*1875 _4034_
*1876 _4035_
*1877 _4036_
*1878 _4037_
*1879 _4040_
*1880 _4043_
*1881 _4044_
*1882 _4046_
*1883 _4047_
*1884 _4053_
*1885 _4055_
*1886 _4056_
*1887 _4057_
*1888 _4063_
*1889 _4064_
*1890 _4069_
*1891 _4070_
*1892 _4071_
*1893 _4075_
*1894 _4076_
*1895 _4078_
*1896 _4079_
*1897 _4086_
*1898 _4087_
*1899 _4089_
*1900 _4092_
*1901 _4094_
*1902 _4098_
*1903 _4099_
*1904 _4101_
*1905 _4102_
*1906 _4103_
*1907 _4109_
*1908 _4110_
*1909 _4114_
*1910 _4115_
*1911 _4116_
*1912 _4122_
*1913 _4123_
*1914 _4126_
*1915 _4129_
*1916 _4130_
*1917 _4133_
*1918 _4134_
*1919 _4139_
*1920 _4140_
*1921 _4142_
*1922 _4143_
*1923 _4144_
*1924 _4151_
*1925 _4155_
*1926 _4156_
*1927 _4157_
*1928 _4162_
*1929 _4163_
*1930 _4167_
*1931 _4170_
*1932 _4173_
*1933 _4174_
*1934 _4178_
*1935 _4180_
*1936 _4182_
*1937 _4190_
*1938 _4193_
*1939 _4194_
*1940 _4195_
*1941 _4200_
*1942 _4201_
*1943 _4204_
*1944 _4205_
*1945 _4206_
*1946 _4210_
*1947 _4212_
*1948 _4213_
*1949 _4216_
*1950 _4221_
*1951 _4222_
*1952 _4223_
*1953 _4224_
*1954 _4226_
*1955 _4228_
*1956 _4233_
*1957 _4234_
*1958 _4236_
*1959 _4238_
*1960 _4243_
*1961 _4244_
*1962 _4246_
*1963 _4247_
*1964 _4249_
*1965 _4252_
*1966 _4253_
*1967 _4254_
*1968 _4255_
*1969 _4257_
*1970 _4258_
*1971 _4259_
*1972 _4261_
*1973 _4266_
*1974 _4267_
*1975 _4275_
*1976 _4277_
*1977 _4279_
*1978 _4280_
*1979 _4282_
*1980 _4284_
*1981 _4290_
*1982 _4294_
*1983 _4298_
*1984 _4301_
*1985 _4307_
*1986 _4311_
*1987 _4314_
*1988 _4322_
*1989 _4323_
*1990 _4324_
*1991 _4327_
*1992 _4328_
*1993 _4330_
*1994 _4331_
*1995 _4334_
*1996 _4336_
*1997 _4337_
*1998 _4338_
*1999 _4340_
*2000 _4341_
*2001 _4342_
*2002 _4344_
*2003 _4348_
*2004 _4351_
*2005 _4352_
*2006 _4353_
*2007 _4355_
*2008 _4356_
*2009 _4360_
*2010 _4361_
*2011 _4362_
*2012 _4363_
*2013 _4364_
*2014 _4365_
*2015 _4366_
*2016 _4367_
*2017 _4368_
*2018 _4369_
*2019 _4370_
*2020 _4371_
*2021 _4372_
*2022 _4373_
*2023 _4374_
*2024 _4375_
*2025 _4376_
*2026 _4377_
*2027 _4378_
*2028 _4379_
*2029 _4380_
*2030 _4381_
*2031 _4382_
*2032 _4383_
*2033 _4384_
*2034 _4385_
*2035 _4386_
*2036 _4387_
*2037 _4388_
*2038 _4389_
*2039 _4390_
*2040 _4391_
*2041 _4392_
*2042 _4393_
*2043 _4394_
*2044 _4395_
*2045 _4396_
*2046 _4397_
*2047 _4398_
*2048 _4399_
*2049 _4400_
*2050 _4401_
*2051 _4402_
*2052 _4403_
*2053 _4404_
*2054 _4405_
*2055 _4406_
*2056 _4407_
*2057 _4408_
*2058 _4409_
*2059 _4410_
*2060 _4411_
*2061 _4412_
*2062 _4413_
*2063 _4414_
*2064 _4415_
*2065 _4416_
*2066 _4417_
*2067 _4418_
*2068 _4419_
*2069 _4420_
*2070 _4421_
*2071 _4422_
*2072 _4423_
*2073 _4424_
*2074 _4425_
*2075 _4426_
*2076 _4427_
*2077 _4428_
*2078 _4429_
*2079 _4430_
*2080 _4431_
*2081 _4432_
*2082 _4433_
*2083 _4434_
*2084 _4435_
*2085 _4436_
*2086 _4437_
*2087 _4438_
*2088 _4439_
*2089 _4440_
*2090 _4441_
*2091 _4442_
*2092 _4443_
*2093 _4444_
*2094 _4445_
*2095 _4446_
*2096 _4447_
*2097 _4448_
*2098 _4449_
*2099 _4450_
*2100 _4451_
*2101 _4452_
*2102 _4453_
*2103 _4454_
*2104 _4455_
*2105 _4456_
*2106 _4457_
*2107 _4458_
*2108 _4459_
*2109 _4460_
*2110 _4461_
*2111 _4462_
*2112 _4463_
*2113 _4464_
*2114 _4465_
*2115 _4466_
*2116 _4467_
*2117 _4468_
*2118 _4469_
*2119 _4470_
*2120 _4471_
*2121 _4472_
*2122 _4473_
*2123 _4474_
*2124 _4475_
*2125 _4476_
*2126 _4477_
*2127 _4478_
*2128 _4479_
*2129 _4480_
*2130 _4481_
*2131 _4482_
*2132 _4483_
*2133 _4484_
*2134 _4485_
*2135 _4486_
*2136 _4487_
*2137 _4488_
*2138 _4489_
*2139 _4490_
*2140 _4491_
*2141 _4492_
*2142 _4493_
*2143 _4494_
*2144 _4495_
*2145 _4496_
*2146 _4497_
*2147 _4498_
*2148 _4499_
*2149 _4500_
*2150 _4501_
*2151 _4502_
*2152 _4503_
*2153 _4504_
*2154 _4505_
*2155 _4506_
*2156 _4507_
*2157 _4508_
*2158 _4509_
*2159 _4510_
*2160 _4511_
*2161 _4512_
*2162 _4513_
*2163 _4514_
*2164 _4515_
*2165 _4516_
*2166 _4517_
*2167 _4518_
*2168 _4519_
*2169 _4520_
*2170 _4521_
*2171 _4522_
*2172 _4523_
*2173 _4524_
*2174 _4525_
*2175 _4526_
*2176 _4527_
*2177 _4528_
*2178 _4529_
*2179 _4530_
*2180 _4531_
*2181 _4532_
*2182 _4533_
*2183 _4534_
*2184 _4535_
*2185 _4536_
*2186 _4537_
*2187 _4538_
*2188 _4539_
*2189 _4540_
*2190 _4541_
*2191 _4542_
*2192 _4543_
*2193 _4544_
*2194 _4545_
*2195 _4546_
*2196 _4547_
*2197 _4548_
*2198 _4549_
*2199 _4550_
*2200 _4551_
*2201 _4552_
*2202 _4553_
*2203 _4554_
*2204 _4555_
*2205 _4556_
*2206 _4557_
*2207 _4558_
*2208 _4559_
*2209 _4560_
*2210 _4561_
*2211 _4562_
*2212 _4563_
*2213 _4564_
*2214 _4565_
*2215 _4566_
*2216 _4567_
*2217 _4568_
*2218 _4569_
*2219 _4570_
*2220 _4571_
*2221 _4572_
*2222 _4573_
*2223 _4574_
*2224 _4575_
*2225 _4576_
*2226 _4577_
*2227 _4578_
*2228 _4579_
*2229 _4580_
*2230 _4581_
*2231 _4582_
*2232 _4583_
*2233 _4584_
*2234 _4585_
*2235 _4586_
*2236 _4587_
*2237 _4588_
*2238 _4589_
*2239 _4590_
*2240 _4591_
*2241 _4592_
*2242 _4593_
*2243 _4594_
*2244 _4595_
*2245 _4596_
*2246 _4597_
*2247 _4598_
*2248 _4599_
*2249 _4600_
*2250 _4601_
*2251 _4602_
*2252 _4603_
*2253 _4604_
*2254 _4605_
*2255 _4606_
*2256 _4607_
*2257 _4608_
*2258 _4609_
*2259 _4610_
*2260 _4611_
*2261 _4612_
*2262 _4613_
*2263 _4614_
*2264 _4615_
*2265 _4616_
*2266 _4617_
*2267 _4618_
*2268 _4619_
*2269 _4620_
*2270 _4621_
*2271 _4622_
*2272 _4623_
*2273 _4624_
*2274 _4625_
*2275 _4626_
*2276 _4627_
*2277 _4628_
*2278 _4629_
*2279 _4630_
*2280 _4631_
*2281 _4632_
*2282 _4633_
*2283 _4634_
*2284 _4635_
*2285 _4636_
*2286 _4637_
*2287 _4638_
*2288 _4639_
*2289 _4640_
*2290 _4641_
*2291 _4642_
*2292 _4643_
*2293 _4644_
*2294 _4645_
*2295 _4646_
*2296 _4647_
*2297 _4648_
*2298 _4649_