*SPEF "ieee 1481-1999"
*DESIGN "rising_edge_detector"
*DATE "15:43:26 Monday April 27, 2026"
*VENDOR "The OpenROAD Project"
*PROGRAM "OpenROAD"
*VERSION "26Q2-339-g0504146ce6"
*DESIGN_FLOW "NAME_SCOPE LOCAL" "PIN_CAP NONE"
*DIVIDER /
*DELIMITER :
*BUS_DELIMITER []
*T_UNIT 1 NS
*C_UNIT 1 PF
*R_UNIT 1 OHM
*L_UNIT 1 HENRY

*NAME_MAP
*1 _0_
*2 _1_
*3 net1
*4 prev_sig
*5 net4
*6 net2
*7 net3
*10 clk
*11 rst
*12 sig_in
*13 pulse
*14 _2_
*15 _3_
*16 prev_sig\$_DFF_P_
*17 pulse\$_DFF_P_
*18 TAP_TAPCELL_ROW_0_0
*19 TAP_TAPCELL_ROW_0_1
*20 TAP_TAPCELL_ROW_1_2
*21 TAP_TAPCELL_ROW_2_3
*22 TAP_TAPCELL_ROW_3_4
*23 TAP_TAPCELL_ROW_4_5
*24 TAP_TAPCELL_ROW_5_6
*25 TAP_TAPCELL_ROW_6_7
*26 TAP_TAPCELL_ROW_7_8
*27 TAP_TAPCELL_ROW_8_9
*28 TAP_TAPCELL_ROW_9_10
*29 TAP_TAPCELL_ROW_10_11
*30 TAP_TAPCELL_ROW_10_12
*31 input1
*32 input2
*33 input3
*34 output4
*35 FILLER_0_0
*36 FILLER_0_8
*37 FILLER_0_16
*38 FILLER_0_24
*39 FILLER_0_28
*40 FILLER_0_31
*41 FILLER_0_39
*42 FILLER_0_47
*43 FILLER_0_55
*44 FILLER_0_59
*45 FILLER_0_61
*46 FILLER_0_69
*47 FILLER_1_0
*48 FILLER_1_8
*49 FILLER_1_16
*50 FILLER_1_24
*51 FILLER_1_32
*52 FILLER_1_40
*53 FILLER_1_48
*54 FILLER_1_56
*55 FILLER_1_61
*56 FILLER_1_69
*57 FILLER_2_0
*58 FILLER_2_8
*59 FILLER_2_16
*60 FILLER_2_24
*61 FILLER_2_28
*62 FILLER_2_31
*63 FILLER_2_43
*64 FILLER_2_51
*65 FILLER_2_59
*66 FILLER_2_67
*67 FILLER_2_71
*68 FILLER_3_0
*69 FILLER_3_8
*70 FILLER_3_16
*71 FILLER_3_24
*72 FILLER_3_32
*73 FILLER_3_40
*74 FILLER_3_46
*75 FILLER_3_61
*76 FILLER_3_69
*77 FILLER_4_0
*78 FILLER_4_8
*79 FILLER_4_16
*80 FILLER_4_24
*81 FILLER_4_28
*82 FILLER_4_31
*83 FILLER_4_35
*84 FILLER_4_52
*85 FILLER_4_60
*86 FILLER_4_68
*87 FILLER_4_72
*88 FILLER_5_0
*89 FILLER_5_8
*90 FILLER_5_18
*91 FILLER_5_26
*92 FILLER_5_34
*93 FILLER_5_42
*94 FILLER_5_69
*95 FILLER_6_0
*96 FILLER_6_8
*97 FILLER_6_16
*98 FILLER_6_24
*99 FILLER_6_28
*100 FILLER_6_31
*101 FILLER_6_39
*102 FILLER_6_47
*103 FILLER_6_55
*104 FILLER_6_64
*105 FILLER_6_72
*106 FILLER_7_0
*107 FILLER_7_8
*108 FILLER_7_16
*109 FILLER_7_24
*110 FILLER_7_32
*111 FILLER_7_40
*112 FILLER_7_48
*113 FILLER_7_56
*114 FILLER_7_61
*115 FILLER_7_69
*116 FILLER_8_0
*117 FILLER_8_8
*118 FILLER_8_16
*119 FILLER_8_24
*120 FILLER_8_28
*121 FILLER_8_31
*122 FILLER_8_39
*123 FILLER_8_47
*124 FILLER_8_55
*125 FILLER_8_63
*126 FILLER_8_71
*127 FILLER_9_0
*128 FILLER_9_8
*129 FILLER_9_16
*130 FILLER_9_24
*131 FILLER_9_32
*132 FILLER_9_40
*133 FILLER_9_48
*134 FILLER_9_56
*135 FILLER_9_61
*136 FILLER_9_69
*137 FILLER_10_0
*138 FILLER_10_8
*139 FILLER_10_16
*140 FILLER_10_24
*141 FILLER_10_28
*142 FILLER_10_31
*143 FILLER_10_39
*144 FILLER_10_47
*145 FILLER_10_55
*146 FILLER_10_59
*147 FILLER_10_61
*148 FILLER_10_69

*PORTS
clk I
pulse O
rst I
sig_in I

*D_NET *1 0.000548182
*CONN
*I *16:D I *D sky130_fd_sc_hd__dfxtp_1
*I *14:Y O *D sky130_fd_sc_hd__nor2b_1
*CAP
1 *16:D 0.000274091
2 *14:Y 0.000274091
3 *16:D *15:A 0
4 *16:D *17:D 0
*RES
1 *14:Y *16:D 33.2962 
*END

*D_NET *2 0.000862074
*CONN
*I *17:D I *D sky130_fd_sc_hd__dfxtp_1
*I *15:Y O *D sky130_fd_sc_hd__nor3b_2
*CAP
1 *17:D 0.000360964
2 *15:Y 0.000360964
3 *17:D *14:B_N 6.50586e-05
4 *17:D *15:A 7.50872e-05
5 *17:D *7:12 0
6 *16:D *17:D 0
*RES
1 *15:Y *17:D 36.0931 
*END

*D_NET *3 0.00214155
*CONN
*I *17:CLK I *D sky130_fd_sc_hd__dfxtp_1
*I *16:CLK I *D sky130_fd_sc_hd__dfxtp_1
*I *31:X O *D sky130_fd_sc_hd__clkdlybuf4s50_1
*CAP
1 *17:CLK 0.00022804
2 *16:CLK 0.000103715
3 *31:X 0.000739018
4 *3:6 0.00107077
*RES
1 *31:X *3:6 19.9554 
2 *3:6 *16:CLK 20.4964 
3 *3:6 *17:CLK 14.8434 
*END

*D_NET *4 0.00024575
*CONN
*I *15:A I *D sky130_fd_sc_hd__nor3b_2
*I *16:Q O *D sky130_fd_sc_hd__dfxtp_1
*CAP
1 *15:A 8.53314e-05
2 *16:Q 8.53314e-05
3 *15:A *7:12 0
4 *16:D *15:A 0
5 *17:D *15:A 7.50872e-05
*RES
1 *16:Q *15:A 29.7455 
*END

*D_NET *5 0.000182686
*CONN
*I *34:A I *D sky130_fd_sc_hd__clkdlybuf4s50_1
*I *17:Q O *D sky130_fd_sc_hd__dfxtp_1
*CAP
1 *34:A 9.13432e-05
2 *17:Q 9.13432e-05
*RES
1 *17:Q *34:A 20.7649 
*END

*D_NET *6 0.000888249
*CONN
*I *15:B I *D sky130_fd_sc_hd__nor3b_2
*I *14:A I *D sky130_fd_sc_hd__nor2b_1
*I *32:X O *D sky130_fd_sc_hd__clkdlybuf4s50_1
*CAP
1 *15:B 0.000174101
2 *14:A 2.06324e-05
3 *32:X 0.000130401
4 *6:12 0.000325135
5 *15:B *14:B_N 0.000223581
6 *6:12 *14:B_N 1.43983e-05
*RES
1 *32:X *6:12 21.2198 
2 *6:12 *14:A 9.82786 
3 *6:12 *15:B 15.5427 
*END

*D_NET *7 0.00282744
*CONN
*I *15:C_N I *D sky130_fd_sc_hd__nor3b_2
*I *14:B_N I *D sky130_fd_sc_hd__nor2b_1
*I *33:X O *D sky130_fd_sc_hd__clkdlybuf4s50_1
*CAP
1 *15:C_N 0.00010063
2 *14:B_N 0.000396711
3 *33:X 0.000683167
4 *7:12 0.00118051
5 *7:12 *33:A 0.000163391
6 *15:A *7:12 0
7 *15:B *14:B_N 0.000223581
8 *17:D *14:B_N 6.50586e-05
9 *17:D *7:12 0
10 *6:12 *14:B_N 1.43983e-05
*RES
1 *33:X *7:12 31.746 
2 *7:12 *14:B_N 19.0873 
3 *7:12 *15:C_N 11.6364 
*END

*D_NET *10 0.0011097
*CONN
*P clk I
*I *31:A I *D sky130_fd_sc_hd__clkdlybuf4s50_1
*CAP
1 clk 0.000554849
2 *31:A 0.000554849
*RES
1 clk *31:A 30.0063 
*END

*D_NET *11 0.00141051
*CONN
*P rst I
*I *32:A I *D sky130_fd_sc_hd__clkdlybuf4s50_1
*CAP
1 rst 0.000705256
2 *32:A 0.000705256
*RES
1 rst *32:A 32.2063 
*END

*D_NET *12 0.00264714
*CONN
*P sig_in I
*I *33:A I *D sky130_fd_sc_hd__clkdlybuf4s50_1
*CAP
1 sig_in 0.000775728
2 *33:A 0.000775728
3 *33:A pulse 0.000932294
4 *7:12 *33:A 0.000163391
*RES
1 sig_in *33:A 23.2363 
*END

*D_NET *13 0.00140949
*CONN
*P pulse O
*I *34:X O *D sky130_fd_sc_hd__clkdlybuf4s50_1
*CAP
1 pulse 0.000238598
2 *34:X 0.000238598
3 *33:A pulse 0.000932294
*RES
1 *34:X pulse 18.7836 
*END
