*SPEF "ieee 1481-1999"
*DESIGN "exp_fixed_point"
*DATE "15:49:25 Monday April 27, 2026"
*VENDOR "The OpenROAD Project"
*PROGRAM "OpenROAD"
*VERSION "26Q2-339-g0504146ce6"
*DESIGN_FLOW "NAME_SCOPE LOCAL" "PIN_CAP NONE"
*DIVIDER /
*DELIMITER :
*BUS_DELIMITER []
*T_UNIT 1 NS
*C_UNIT 1 PF
*R_UNIT 1 OHM
*L_UNIT 1 HENRY

*NAME_MAP
*1 _0000_\[0\]
*2 _0000_\[10\]
*3 _0000_\[11\]
*4 _0000_\[12\]
*5 _0000_\[13\]
*6 _0000_\[14\]
*7 _0000_\[15\]
*8 _0000_\[1\]
*9 _0000_\[2\]
*10 _0000_\[3\]
*11 _0000_\[4\]
*12 _0000_\[5\]
*13 _0000_\[6\]
*14 _0000_\[7\]
*15 _0000_\[8\]
*16 _0000_\[9\]
*17 _0001_\[0\]
*18 _0001_\[10\]
*19 _0001_\[11\]
*20 _0001_\[12\]
*21 _0001_\[13\]
*22 _0001_\[14\]
*23 _0001_\[15\]
*24 _0001_\[1\]
*25 _0001_\[2\]
*26 _0001_\[3\]
*27 _0001_\[4\]
*28 _0001_\[5\]
*29 _0001_\[6\]
*30 _0001_\[7\]
*31 _0001_\[8\]
*32 _0001_\[9\]
*33 _0002_
*34 _0003_
*36 _0004_\[0\]
*37 _0004_\[1\]
*38 _0004_\[2\]
*39 _0004_\[3\]
*40 _0004_\[4\]
*41 _0004_\[5\]
*42 _0004_\[6\]
*43 _0004_\[7\]
*52 _0013_
*54 clknet_2_3__leaf_clk
*55 clknet_2_2__leaf_clk
*56 clknet_2_1__leaf_clk
*57 clknet_2_0__leaf_clk
*58 net71
*59 net64
*60 net62
*61 net58
*62 net57
*63 net56
*64 net53
*65 net52
*66 _0027_
*67 net51
*68 _0029_
*69 _0030_
*70 net50
*71 _0032_
*72 _0033_
*73 _0034_
*74 net49
*75 net48
*76 _0037_
*77 _0038_
*78 _0039_
*79 net47
*80 clknet_0_clk
*81 _0042_
*82 net73
*83 net67
*84 net65
*85 _0046_
*86 _0047_
*87 _0048_
*88 _0049_
*89 net63
*90 net61
*91 _0052_
*92 _0053_
*93 _0054_
*94 _0055_
*95 _0056_
*96 net59
*97 net60
*98 _0059_
*99 _0060_
*100 net55
*101 _0062_
*102 net54
*103 _0064_
*104 net72
*105 net70
*106 _0067_
*107 _0068_
*108 _0069_
*109 net69
*110 _0071_
*111 _0072_
*112 _0073_
*113 _0074_
*114 _0075_
*115 _0076_
*116 net68
*117 net66
*118 _0079_
*119 _0080_
*120 exp_out[9]
*121 _0082_
*122 _0083_
*123 _0084_
*124 _0085_
*125 _0086_
*126 _0087_
*127 _0088_
*128 _0089_
*129 exp_out[8]
*130 exp_out[7]
*131 exp_out[6]
*132 _0093_
*133 exp_out[5]
*134 _0095_
*135 _0096_
*136 _0097_
*137 _0098_
*138 _0099_
*139 _0100_
*140 _0101_
*141 _0102_
*142 _0103_
*143 _0104_
*144 _0105_
*145 _0106_
*146 _0107_
*147 exp_out[4]
*148 _0109_
*149 _0110_
*150 _0111_
*151 _0112_
*152 _0113_
*153 _0114_
*154 exp_out[3]
*155 _0116_
*156 exp_out[2]
*157 exp_out[1]
*158 _0119_
*159 _0120_
*160 _0121_
*161 exp_out[15]
*162 _0123_
*163 _0124_
*164 _0125_
*165 _0126_
*166 _0127_
*167 _0128_
*168 _0129_
*169 exp_out[14]
*170 _0131_
*171 _0132_
*172 _0133_
*173 exp_out[13]
*174 _0135_
*175 exp_out[12]
*176 _0137_
*177 _0138_
*178 _0139_
*179 _0140_
*180 _0141_
*181 _0142_
*182 _0143_
*183 _0144_
*184 _0145_
*185 _0146_
*186 _0147_
*187 _0148_
*188 _0149_
*189 exp_out[11]
*190 _0151_
*191 _0152_
*192 _0153_
*193 _0154_
*194 _0155_
*195 _0156_
*196 _0157_
*197 _0158_
*198 _0159_
*199 exp_out[10]
*200 _0161_
*201 _0162_
*202 _0163_
*203 _0164_
*204 _0165_
*205 _0166_
*206 exp_out[0]
*207 _0168_
*208 _0169_
*209 _0170_
*210 _0171_
*211 _0172_
*212 _0173_
*213 _0174_
*214 _0175_
*215 _0176_
*216 x_in[7]
*217 _0178_
*218 _0179_
*219 _0180_
*220 _0181_
*221 _0182_
*222 _0183_
*223 _0184_
*224 _0185_
*225 _0186_
*226 _0187_
*227 _0188_
*228 _0189_
*229 _0190_
*230 _0191_
*231 _0192_
*232 _0193_
*233 _0194_
*234 _0195_
*235 x_in[6]
*236 _0197_
*237 _0198_
*238 _0199_
*239 _0200_
*240 _0201_
*241 _0202_
*242 _0203_
*243 _0204_
*244 _0205_
*245 _0206_
*246 _0207_
*247 _0208_
*248 _0209_
*249 _0210_
*250 _0211_
*251 _0212_
*252 _0213_
*253 _0214_
*254 _0215_
*255 _0216_
*256 _0217_
*257 _0218_
*258 _0219_
*259 _0220_
*260 _0221_
*261 _0222_
*262 _0223_
*263 _0224_
*264 _0225_
*265 _0226_
*266 _0227_
*267 _0228_
*268 _0229_
*269 _0230_
*270 _0231_
*271 _0232_
*272 _0233_
*273 x_in[5]
*274 _0235_
*275 _0236_
*276 _0237_
*277 _0238_
*278 _0239_
*279 _0240_
*280 _0241_
*281 _0242_
*282 _0243_
*283 _0244_
*284 _0245_
*285 _0246_
*286 _0247_
*287 _0248_
*288 _0249_
*289 _0250_
*290 _0251_
*291 _0252_
*292 _0253_
*293 _0254_
*294 _0255_
*295 _0256_
*296 _0257_
*297 _0258_
*298 _0259_
*299 _0260_
*300 _0261_
*301 _0262_
*302 _0263_
*303 _0264_
*304 x_in[4]
*305 _0266_
*306 _0267_
*307 x_in[3]
*308 _0269_
*309 _0270_
*310 _0271_
*311 _0272_
*312 _0273_
*313 _0274_
*314 _0275_
*315 _0276_
*316 _0277_
*317 _0278_
*318 _0279_
*319 _0280_
*320 _0281_
*321 _0282_
*322 _0283_
*323 _0284_
*324 _0285_
*325 _0286_
*326 _0287_
*327 _0288_
*328 _0289_
*329 _0290_
*330 _0291_
*331 _0292_
*332 _0293_
*333 _0294_
*334 _0295_
*335 _0296_
*336 _0297_
*337 _0298_
*338 _0299_
*339 _0300_
*340 _0301_
*341 _0302_
*342 _0303_
*343 _0304_
*344 _0305_
*345 _0306_
*346 _0307_
*347 _0308_
*348 _0309_
*349 _0310_
*350 _0311_
*351 _0312_
*352 _0313_
*353 _0314_
*354 _0315_
*355 _0316_
*356 _0317_
*357 _0318_
*358 _0319_
*359 _0320_
*360 _0321_
*361 _0322_
*362 _0323_
*363 _0324_
*364 _0325_
*365 _0326_
*366 _0327_
*367 _0328_
*368 _0329_
*369 x_in[2]
*370 _0331_
*371 _0332_
*372 _0333_
*373 _0334_
*374 _0335_
*375 _0336_
*376 _0337_
*377 _0338_
*378 _0339_
*379 _0340_
*380 _0341_
*381 _0342_
*382 _0343_
*383 _0344_
*384 _0345_
*385 _0346_
*386 _0347_
*387 _0348_
*388 _0349_
*389 _0350_
*390 _0351_
*391 _0352_
*392 _0353_
*393 _0354_
*394 _0355_
*395 _0356_
*396 _0357_
*397 _0358_
*398 _0359_
*399 _0360_
*400 _0361_
*401 _0362_
*402 _0363_
*403 _0364_
*404 _0365_
*405 _0366_
*406 _0367_
*407 _0368_
*408 _0369_
*409 _0370_
*410 _0371_
*411 _0372_
*412 _0373_
*413 _0374_
*414 _0375_
*415 _0376_
*416 _0377_
*417 _0378_
*418 _0379_
*419 _0380_
*420 _0381_
*421 _0382_
*422 _0383_
*423 _0384_
*424 _0385_
*425 _0386_
*426 _0387_
*427 _0388_
*428 _0389_
*429 _0390_
*430 _0391_
*431 _0392_
*432 _0393_
*433 _0394_
*434 _0395_
*435 _0396_
*436 _0397_
*437 _0398_
*438 _0399_
*439 _0400_
*440 _0401_
*441 _0402_
*442 _0403_
*443 _0404_
*444 _0405_
*445 _0406_
*446 _0407_
*447 _0408_
*448 _0409_
*449 _0410_
*450 _0411_
*451 _0412_
*452 _0413_
*453 _0414_
*454 _0415_
*455 _0416_
*456 _0417_
*457 _0418_
*458 _0419_
*459 _0420_
*460 _0421_
*461 _0422_
*462 _0423_
*463 _0424_
*464 _0425_
*465 _0426_
*466 _0427_
*467 _0428_
*468 _0429_
*469 _0430_
*470 _0431_
*471 _0432_
*472 _0433_
*473 _0434_
*474 _0435_
*475 _0436_
*476 _0437_
*477 _0438_
*478 _0439_
*479 _0440_
*480 _0441_
*481 _0442_
*482 _0443_
*483 _0444_
*484 _0445_
*485 _0446_
*486 _0447_
*487 _0448_
*488 _0449_
*489 _0450_
*490 _0451_
*491 _0452_
*492 _0453_
*493 _0454_
*494 _0455_
*495 _0456_
*496 _0457_
*497 _0458_
*498 _0459_
*499 _0460_
*500 _0461_
*501 _0462_
*502 _0463_
*503 _0464_
*504 _0465_
*505 _0466_
*506 _0467_
*507 _0468_
*508 _0469_
*509 _0470_
*510 _0471_
*511 _0472_
*512 _0473_
*513 _0474_
*514 _0475_
*515 _0476_
*516 _0477_
*517 _0478_
*518 _0479_
*519 _0480_
*520 _0481_
*521 _0482_
*522 _0483_
*523 _0484_
*524 _0485_
*525 _0486_
*526 _0487_
*527 _0488_
*528 _0489_
*529 _0490_
*530 _0491_
*531 _0492_
*532 _0493_
*533 _0494_
*534 _0495_
*535 _0496_
*536 _0497_
*537 _0498_
*538 _0499_
*539 _0500_
*540 _0501_
*541 _0502_
*542 _0503_
*543 _0504_
*544 _0505_
*545 _0506_
*546 _0507_
*547 _0508_
*548 _0509_
*549 _0510_
*550 x_in[1]
*551 x_in[0]
*552 _0513_
*553 _0514_
*554 rst
*555 _0516_
*556 _0517_
*557 _0518_
*558 _0519_
*559 _0520_
*560 _0521_
*561 _0522_
*562 _0523_
*563 enable
*566 _0527_
*567 _0528_
*568 _0529_
*569 _0530_
*570 _0531_
*571 _0532_
*572 _0533_
*573 _0534_
*574 _0535_
*575 _0536_
*576 _0537_
*577 _0538_
*578 _0539_
*579 _0540_
*580 _0541_
*581 _0542_
*582 _0543_
*583 _0544_
*584 _0545_
*585 _0546_
*586 _0547_
*587 _0548_
*588 _0549_
*589 _0550_
*590 _0551_
*596 clk
*597 net1
*598 net11
*599 net12
*600 net13
*601 net14
*602 net15
*603 net16
*604 net17
*605 net18
*606 net19
*607 net20
*608 net21
*609 net22
*610 net23
*611 net24
*612 net25
*613 net26
*614 lut_stage2\[0\]
*615 lut_stage2\[10\]
*616 lut_stage2\[11\]
*617 lut_stage2\[12\]
*618 lut_stage2\[13\]
*619 lut_stage2\[14\]
*620 lut_stage2\[15\]
*621 lut_stage2\[1\]
*622 lut_stage2\[2\]
*623 lut_stage2\[3\]
*624 lut_stage2\[4\]
*625 lut_stage2\[5\]
*626 lut_stage2\[6\]
*627 lut_stage2\[7\]
*628 lut_stage2\[8\]
*629 lut_stage2\[9\]
*630 net2
*631 stage1_valid
*632 stage2_valid
*633 net3
*634 net4
*635 net5
*636 net6
*637 net7
*638 net8
*639 net9
*640 net10
*641 x_stage1\[0\]
*642 x_stage1\[1\]
*643 x_stage1\[2\]
*644 x_stage1\[3\]
*645 x_stage1\[4\]
*646 x_stage1\[5\]
*647 x_stage1\[6\]
*648 x_stage1\[7\]
*649 TAP_TAPCELL_ROW_12_74
*650 TAP_TAPCELL_ROW_12_73
*651 TAP_TAPCELL_ROW_12_72
*652 TAP_TAPCELL_ROW_12_71
*653 TAP_TAPCELL_ROW_11_70
*654 TAP_TAPCELL_ROW_11_69
*655 TAP_TAPCELL_ROW_11_68
*656 TAP_TAPCELL_ROW_11_67
*657 TAP_TAPCELL_ROW_11_66
*658 TAP_TAPCELL_ROW_10_65
*659 TAP_TAPCELL_ROW_10_64
*660 TAP_TAPCELL_ROW_10_63
*661 TAP_TAPCELL_ROW_10_62
*662 TAP_TAPCELL_ROW_10_61
*663 _0571_
*664 TAP_TAPCELL_ROW_10_60
*665 TAP_TAPCELL_ROW_9_59
*666 TAP_TAPCELL_ROW_9_58
*667 TAP_TAPCELL_ROW_9_57
*668 TAP_TAPCELL_ROW_9_56
*669 TAP_TAPCELL_ROW_9_55
*670 TAP_TAPCELL_ROW_8_54
*671 TAP_TAPCELL_ROW_8_53
*672 TAP_TAPCELL_ROW_8_52
*673 TAP_TAPCELL_ROW_8_51
*674 TAP_TAPCELL_ROW_8_50
*675 TAP_TAPCELL_ROW_8_49
*676 TAP_TAPCELL_ROW_7_48
*677 _0585_
*678 TAP_TAPCELL_ROW_7_47
*679 _0587_
*680 _0588_
*681 TAP_TAPCELL_ROW_7_46
*682 _0590_
*683 _0591_
*684 _0592_
*685 TAP_TAPCELL_ROW_7_45
*686 TAP_TAPCELL_ROW_7_44
*687 _0595_
*688 _0596_
*689 _0597_
*690 TAP_TAPCELL_ROW_6_43
*691 TAP_TAPCELL_ROW_6_42
*692 _0600_
*693 TAP_TAPCELL_ROW_6_41
*694 TAP_TAPCELL_ROW_6_40
*695 TAP_TAPCELL_ROW_6_39
*696 _0604_
*697 _0605_
*698 _0606_
*699 _0607_
*700 TAP_TAPCELL_ROW_6_38
*701 TAP_TAPCELL_ROW_5_37
*702 _0610_
*703 _0611_
*704 _0612_
*705 _0613_
*706 _0614_
*707 TAP_TAPCELL_ROW_5_36
*708 TAP_TAPCELL_ROW_5_35
*709 _0617_
*710 _0618_
*711 TAP_TAPCELL_ROW_5_34
*712 _0620_
*713 TAP_TAPCELL_ROW_5_33
*714 _0622_
*715 TAP_TAPCELL_ROW_4_32
*716 TAP_TAPCELL_ROW_4_31
*717 _0625_
*718 _0626_
*719 _0627_
*720 TAP_TAPCELL_ROW_4_30
*721 _0629_
*722 _0630_
*723 _0631_
*724 _0632_
*725 _0633_
*726 _0634_
*727 TAP_TAPCELL_ROW_4_29
*728 TAP_TAPCELL_ROW_4_28
*729 _0637_
*730 _0638_
*731 TAP_TAPCELL_ROW_4_27
*732 _0640_
*733 _0641_
*734 _0642_
*735 _0643_
*736 _0644_
*737 _0645_
*738 _0646_
*739 _0647_
*740 TAP_TAPCELL_ROW_3_26
*741 TAP_TAPCELL_ROW_3_25
*742 TAP_TAPCELL_ROW_3_24
*743 _0651_
*744 TAP_TAPCELL_ROW_3_23
*745 _0653_
*746 _0654_
*747 _0655_
*748 _0656_
*749 _0657_
*750 _0658_
*751 _0659_
*752 _0660_
*753 _0661_
*754 _0662_
*755 _0663_
*756 _0664_
*757 _0665_
*758 TAP_TAPCELL_ROW_3_22
*759 _0667_
*760 _0668_
*761 _0669_
*762 _0670_
*763 _0671_
*764 _0672_
*765 TAP_TAPCELL_ROW_2_21
*766 _0674_
*767 TAP_TAPCELL_ROW_2_20
*768 TAP_TAPCELL_ROW_2_19
*769 _0677_
*770 _0678_
*771 _0679_
*772 TAP_TAPCELL_ROW_2_18
*773 _0681_
*774 _0682_
*775 _0683_
*776 _0684_
*777 _0685_
*778 _0686_
*779 _0687_
*780 TAP_TAPCELL_ROW_2_17
*781 _0689_
*782 _0690_
*783 _0691_
*784 TAP_TAPCELL_ROW_2_16
*785 _0693_
*786 TAP_TAPCELL_ROW_1_15
*787 _0695_
*788 _0696_
*789 _0697_
*790 _0698_
*791 _0699_
*792 _0700_
*793 _0701_
*794 _0702_
*795 _0703_
*796 _0704_
*797 _0705_
*798 _0706_
*799 _0707_
*800 TAP_TAPCELL_ROW_1_14
*801 _0709_
*802 _0710_
*803 _0711_
*804 _0712_
*805 _0713_
*806 _0714_
*807 _0715_
*808 _0716_
*809 _0717_
*810 TAP_TAPCELL_ROW_1_13
*811 _0719_
*812 _0720_
*813 _0721_
*814 _0722_
*815 _0723_
*816 _0724_
*817 TAP_TAPCELL_ROW_1_12
*818 _0726_
*819 _0727_
*820 _0728_
*821 _0729_
*822 _0730_
*823 _0731_
*824 _0732_
*825 _0733_
*826 _0734_
*827 TAP_TAPCELL_ROW_1_11
*828 _0736_
*829 _0737_
*830 _0738_
*831 _0739_
*832 _0740_
*833 _0741_
*834 _0742_
*835 _0743_
*836 _0744_
*837 _0745_
*838 _0746_
*839 _0747_
*840 _0748_
*841 _0749_
*842 _0750_
*843 _0751_
*844 _0752_
*845 _0753_
*846 TAP_TAPCELL_ROW_0_10
*847 _0755_
*848 _0756_
*849 _0757_
*850 _0758_
*851 _0759_
*852 _0760_
*853 _0761_
*854 _0762_
*855 _0763_
*856 _0764_
*857 _0765_
*858 _0766_
*859 _0767_
*860 _0768_
*861 _0769_
*862 _0770_
*863 _0771_
*864 _0772_
*865 _0773_
*866 _0774_
*867 _0775_
*868 _0776_
*869 _0777_
*870 _0778_
*871 _0779_
*872 _0780_
*873 _0781_
*874 _0782_
*875 _0783_
*876 _0784_
*877 _0785_
*878 _0786_
*879 _0787_
*880 _0788_
*881 _0789_
*882 _0790_
*883 _0791_
*884 _0792_
*885 TAP_TAPCELL_ROW_0_9
*886 _0794_
*887 _0795_
*888 _0796_
*889 _0797_
*890 _0798_
*891 _0799_
*892 _0800_
*893 _0801_
*894 _0802_
*895 _0803_
*896 _0804_
*897 _0805_
*898 _0806_
*899 _0807_
*900 _0808_
*901 _0809_
*902 _0810_
*903 _0811_
*904 _0812_
*905 _0813_
*906 _0814_
*907 _0815_
*908 _0816_
*909 _0817_
*910 _0818_
*911 _0819_
*912 _0820_
*913 _0821_
*914 _0822_
*915 _0823_
*916 TAP_TAPCELL_ROW_0_8
*917 _0825_
*918 _0826_
*919 TAP_TAPCELL_ROW_0_7
*920 _0828_
*921 _0829_
*922 _0830_
*923 _0831_
*924 _0832_
*925 _0833_
*926 _0834_
*927 _0835_
*928 _0836_
*929 _0837_
*930 _0838_
*931 _0839_
*932 _0840_
*933 _0841_
*934 _0842_
*935 _0843_
*936 _0844_
*937 _0845_
*938 _0846_
*939 _0847_
*940 _0848_
*941 _0849_
*942 _0850_
*943 _0851_
*944 _0852_
*945 _0853_
*946 _0854_
*947 _0855_
*948 _0856_
*949 _0857_
*950 _0858_
*951 _0859_
*952 _0860_
*953 _0861_
*954 _0862_
*955 _0863_
*956 _0864_
*957 _0865_
*958 _0866_
*959 _0867_
*960 _0868_
*961 _0869_
*962 _0870_
*963 _0871_
*964 _0872_
*965 _0873_
*966 _0874_
*967 _0875_
*968 _0876_
*969 _0877_
*970 _0878_
*971 _0879_
*972 _0880_
*973 _0881_
*974 _0882_
*975 _0883_
*976 _0884_
*977 _0885_
*978 _0886_
*979 _0887_
*980 _0888_
*981 _0889_
*982 TAP_TAPCELL_ROW_0_6
*983 _0891_
*984 _0892_
*985 _0893_
*986 _0894_
*987 _0895_
*988 _0896_
*989 _0897_
*990 _0898_
*991 _0899_
*992 _0900_
*993 _0901_
*994 _0902_
*995 _0903_
*996 _0904_
*997 _0905_
*998 _0906_
*999 _0907_
*1000 _0908_
*1001 _0909_
*1002 _0910_
*1003 _0911_
*1004 _0912_
*1005 _0913_
*1006 _0914_
*1007 _0915_
*1008 _0916_
*1009 _0917_
*1010 _0918_
*1011 _0919_
*1012 _0920_
*1013 _0921_
*1014 _0922_
*1015 _0923_
*1016 _0924_
*1017 _0925_
*1018 _0926_
*1019 _0927_
*1020 _0928_
*1021 _0929_
*1022 _0930_
*1023 _0931_
*1024 _0932_
*1025 _0933_
*1026 _0934_
*1027 _0935_
*1028 _0936_
*1029 _0937_
*1030 _0938_
*1031 _0939_
*1032 _0940_
*1033 _0941_
*1034 _0942_
*1035 _0943_
*1036 _0944_
*1037 _0945_
*1038 _0946_
*1039 _0947_
*1040 _0948_
*1041 _0949_
*1042 _0950_
*1043 _0951_
*1044 _0952_
*1045 _0953_
*1046 _0954_
*1047 _0955_
*1048 _0956_
*1049 _0957_
*1050 _0958_
*1051 _0959_
*1052 _0960_
*1053 _0961_
*1054 _0962_
*1055 _0963_
*1056 _0964_
*1057 _0965_
*1058 _0966_
*1059 _0967_
*1060 _0968_
*1061 _0969_
*1062 _0970_
*1063 _0971_
*1064 _0972_
*1065 _0973_
*1066 _0974_
*1067 _0975_
*1068 _0976_
*1069 _0977_
*1070 _0978_
*1071 _0979_
*1072 _0980_
*1073 _0981_
*1074 _0982_
*1075 _0983_
*1076 _0984_
*1077 _0985_
*1078 _0986_
*1079 _0987_
*1080 _0988_
*1081 _0989_
*1082 _0990_
*1083 _0991_
*1084 _0992_
*1085 _0993_
*1086 _0994_
*1087 _0995_
*1088 _0996_
*1089 _0997_
*1090 _0998_
*1091 _0999_
*1092 _1000_
*1093 _1001_
*1094 _1002_
*1095 _1003_
*1096 _1004_
*1097 _1005_
*1098 _1006_
*1099 _1007_
*1100 _1008_
*1101 _1009_
*1102 _1010_
*1103 _1011_
*1104 _1012_
*1105 _1013_
*1106 _1014_
*1107 _1015_
*1108 _1016_
*1109 _1017_
*1110 _1018_
*1111 _1019_
*1112 _1020_
*1113 _1021_
*1114 _1022_
*1115 _1023_
*1116 _1024_
*1117 _1025_
*1118 _1026_
*1119 _1027_
*1120 _1028_
*1121 _1029_
*1122 _1030_
*1123 _1031_
*1124 _1032_
*1125 _1033_
*1126 _1034_
*1127 _1035_
*1128 _1036_
*1129 _1037_
*1130 _1038_
*1131 _1039_
*1132 _1040_
*1133 _1041_
*1134 _1042_
*1135 _1043_
*1136 _1044_
*1137 _1045_
*1138 _1046_
*1139 _1047_
*1140 _1048_
*1141 _1049_
*1142 _1050_
*1143 _1051_
*1144 _1052_
*1145 _1053_
*1146 _1054_
*1147 _1055_
*1148 _1056_
*1149 _1057_
*1150 _1058_
*1151 _1059_
*1152 _1060_
*1153 _1061_
*1154 _1062_
*1155 _1063_
*1156 _1064_
*1157 _1065_
*1158 _1066_
*1159 _1067_
*1160 _1068_
*1161 _1069_
*1162 _1070_
*1163 _1071_
*1164 _1072_
*1165 _1073_
*1166 _1074_
*1167 _1075_
*1168 _1076_
*1169 TAP_TAPCELL_ROW_0_5
*1170 TAP_TAPCELL_ROW_0_4
*1171 _1079_
*1172 _1080_
*1173 _1081_
*1174 _1082_
*1175 _1083_
*1176 _1084_
*1177 _1085_
*1178 _1086_
*1179 _1087_
*1180 TAP_TAPCELL_ROW_0_3
*1181 _1089_
*1182 _1090_
*1183 _1091_
*1184 _1092_
*1185 _1093_
*1186 _1094_
*1187 _1095_
*1188 _1096_
*1189 _1097_
*1190 _1098_
*1191 _1099_
*1192 _1100_
*1193 _1101_
*1194 _1102_
*1195 _1103_
*1196 _1104_
*1197 TAP_TAPCELL_ROW_0_2
*1198 TAP_TAPCELL_ROW_0_1
*1199 TAP_TAPCELL_ROW_0_0
*1200 _1108_
*1201 _1109_
*1202 _1110_
*1203 _1111_
*1204 _1112_
*1205 _1113_
*1206 _1114_
*1207 _1115_
*1208 _1116_
*1209 _1117_
*1210 _1118_
*1211 _1119_
*1212 _1120_
*1213 _1121_
*1214 _1122_
*1215 _1123_
*1216 _1124_
*1217 _1125_
*1218 _1126_
*1219 _1127_
*1220 _1128_
*1221 _1129_
*1222 _1130_
*1223 _1131_
*1224 _1132_
*1225 _1133_
*1226 _1134_
*1227 _1135_
*1228 _1136_
*1229 _1137_
*1230 _1138_
*1231 _1139_
*1232 _1140_
*1233 _1141_
*1234 _1142_
*1235 _1143_
*1236 _1144_
*1237 _1145_
*1238 _1146_
*1239 _1147_
*1240 _1148_
*1241 _1149_
*1242 _1150_
*1243 _1151_
*1244 exp_out\[0\]\$_DFF_P_
*1245 exp_out\[10\]\$_DFF_P_
*1246 exp_out\[11\]\$_DFF_P_
*1247 exp_out\[12\]\$_DFF_P_
*1248 exp_out\[13\]\$_DFF_P_
*1249 exp_out\[14\]\$_DFF_P_
*1250 exp_out\[15\]\$_DFF_P_
*1251 exp_out\[1\]\$_DFF_P_
*1252 exp_out\[2\]\$_DFF_P_
*1253 exp_out\[3\]\$_DFF_P_
*1254 exp_out\[4\]\$_DFF_P_
*1255 exp_out\[5\]\$_DFF_P_
*1256 exp_out\[6\]\$_DFF_P_
*1257 exp_out\[7\]\$_DFF_P_
*1258 exp_out\[8\]\$_DFF_P_
*1259 exp_out\[9\]\$_DFF_P_
*1260 lut_stage2\[0\]\$_DFF_P_
*1261 lut_stage2\[10\]\$_DFF_P_
*1262 lut_stage2\[11\]\$_DFF_P_
*1263 lut_stage2\[12\]\$_DFF_P_
*1264 lut_stage2\[13\]\$_DFF_P_
*1265 lut_stage2\[14\]\$_DFF_P_
*1266 lut_stage2\[15\]\$_DFF_P_
*1267 lut_stage2\[1\]\$_DFF_P_
*1268 lut_stage2\[2\]\$_DFF_P_
*1269 lut_stage2\[3\]\$_DFF_P_
*1270 lut_stage2\[4\]\$_DFF_P_
*1271 lut_stage2\[5\]\$_DFF_P_
*1272 lut_stage2\[6\]\$_DFF_P_
*1273 lut_stage2\[7\]\$_DFF_P_
*1274 lut_stage2\[8\]\$_DFF_P_
*1275 lut_stage2\[9\]\$_DFF_P_
*1276 stage1_valid\$_DFF_P_
*1277 stage2_valid\$_DFF_P_
*1278 x_stage1\[0\]\$_DFF_P_
*1279 x_stage1\[1\]\$_DFF_P_
*1280 x_stage1\[2\]\$_DFF_P_
*1281 x_stage1\[3\]\$_DFF_P_
*1282 x_stage1\[4\]\$_DFF_P_
*1283 x_stage1\[5\]\$_DFF_P_
*1284 x_stage1\[6\]\$_DFF_P_
*1285 x_stage1\[7\]\$_DFF_P_
*1286 TAP_TAPCELL_ROW_12_75
*1287 TAP_TAPCELL_ROW_12_76
*1288 TAP_TAPCELL_ROW_13_77
*1289 TAP_TAPCELL_ROW_13_78
*1290 TAP_TAPCELL_ROW_13_79
*1291 TAP_TAPCELL_ROW_13_80
*1292 TAP_TAPCELL_ROW_13_81
*1293 TAP_TAPCELL_ROW_14_82
*1294 TAP_TAPCELL_ROW_14_83
*1295 TAP_TAPCELL_ROW_14_84
*1296 TAP_TAPCELL_ROW_14_85
*1297 TAP_TAPCELL_ROW_14_86
*1298 TAP_TAPCELL_ROW_14_87
*1299 TAP_TAPCELL_ROW_15_88
*1300 TAP_TAPCELL_ROW_15_89
*1301 TAP_TAPCELL_ROW_15_90
*1302 TAP_TAPCELL_ROW_15_91
*1303 TAP_TAPCELL_ROW_15_92
*1304 TAP_TAPCELL_ROW_16_93
*1305 TAP_TAPCELL_ROW_16_94
*1306 TAP_TAPCELL_ROW_16_95
*1307 TAP_TAPCELL_ROW_16_96
*1308 TAP_TAPCELL_ROW_16_97
*1309 TAP_TAPCELL_ROW_16_98
*1310 TAP_TAPCELL_ROW_17_99
*1311 TAP_TAPCELL_ROW_17_100
*1312 TAP_TAPCELL_ROW_17_101
*1313 TAP_TAPCELL_ROW_17_102
*1314 TAP_TAPCELL_ROW_17_103
*1315 TAP_TAPCELL_ROW_18_104
*1316 TAP_TAPCELL_ROW_18_105
*1317 TAP_TAPCELL_ROW_18_106
*1318 TAP_TAPCELL_ROW_18_107
*1319 TAP_TAPCELL_ROW_18_108
*1320 TAP_TAPCELL_ROW_18_109
*1321 TAP_TAPCELL_ROW_19_110
*1322 TAP_TAPCELL_ROW_19_111
*1323 TAP_TAPCELL_ROW_19_112
*1324 TAP_TAPCELL_ROW_19_113
*1325 TAP_TAPCELL_ROW_19_114
*1326 TAP_TAPCELL_ROW_20_115
*1327 TAP_TAPCELL_ROW_20_116
*1328 TAP_TAPCELL_ROW_20_117
*1329 TAP_TAPCELL_ROW_20_118
*1330 TAP_TAPCELL_ROW_20_119
*1331 TAP_TAPCELL_ROW_20_120
*1332 TAP_TAPCELL_ROW_21_121
*1333 TAP_TAPCELL_ROW_21_122
*1334 TAP_TAPCELL_ROW_21_123
*1335 TAP_TAPCELL_ROW_21_124
*1336 TAP_TAPCELL_ROW_21_125
*1337 TAP_TAPCELL_ROW_22_126
*1338 TAP_TAPCELL_ROW_22_127
*1339 TAP_TAPCELL_ROW_22_128
*1340 TAP_TAPCELL_ROW_22_129
*1341 TAP_TAPCELL_ROW_22_130
*1342 TAP_TAPCELL_ROW_22_131
*1343 TAP_TAPCELL_ROW_23_132
*1344 TAP_TAPCELL_ROW_23_133
*1345 TAP_TAPCELL_ROW_23_134
*1346 TAP_TAPCELL_ROW_23_135
*1347 TAP_TAPCELL_ROW_23_136
*1348 TAP_TAPCELL_ROW_24_137
*1349 TAP_TAPCELL_ROW_24_138
*1350 TAP_TAPCELL_ROW_24_139
*1351 TAP_TAPCELL_ROW_24_140
*1352 TAP_TAPCELL_ROW_24_141
*1353 TAP_TAPCELL_ROW_24_142
*1354 TAP_TAPCELL_ROW_25_143
*1355 TAP_TAPCELL_ROW_25_144
*1356 TAP_TAPCELL_ROW_25_145
*1357 TAP_TAPCELL_ROW_25_146
*1358 TAP_TAPCELL_ROW_25_147
*1359 TAP_TAPCELL_ROW_26_148
*1360 TAP_TAPCELL_ROW_26_149
*1361 TAP_TAPCELL_ROW_26_150
*1362 TAP_TAPCELL_ROW_26_151
*1363 TAP_TAPCELL_ROW_26_152
*1364 TAP_TAPCELL_ROW_26_153
*1365 TAP_TAPCELL_ROW_27_154
*1366 TAP_TAPCELL_ROW_27_155
*1367 TAP_TAPCELL_ROW_27_156
*1368 TAP_TAPCELL_ROW_27_157
*1369 TAP_TAPCELL_ROW_27_158
*1370 TAP_TAPCELL_ROW_28_159
*1371 TAP_TAPCELL_ROW_28_160
*1372 TAP_TAPCELL_ROW_28_161
*1373 TAP_TAPCELL_ROW_28_162
*1374 TAP_TAPCELL_ROW_28_163
*1375 TAP_TAPCELL_ROW_28_164
*1376 TAP_TAPCELL_ROW_29_165
*1377 TAP_TAPCELL_ROW_29_166
*1378 TAP_TAPCELL_ROW_29_167
*1379 TAP_TAPCELL_ROW_29_168
*1380 TAP_TAPCELL_ROW_29_169
*1381 TAP_TAPCELL_ROW_30_170
*1382 TAP_TAPCELL_ROW_30_171
*1383 TAP_TAPCELL_ROW_30_172
*1384 TAP_TAPCELL_ROW_30_173
*1385 TAP_TAPCELL_ROW_30_174
*1386 TAP_TAPCELL_ROW_30_175
*1387 TAP_TAPCELL_ROW_31_176
*1388 TAP_TAPCELL_ROW_31_177
*1389 TAP_TAPCELL_ROW_31_178
*1390 TAP_TAPCELL_ROW_31_179
*1391 TAP_TAPCELL_ROW_31_180
*1392 TAP_TAPCELL_ROW_32_181
*1393 TAP_TAPCELL_ROW_32_182
*1394 TAP_TAPCELL_ROW_32_183
*1395 TAP_TAPCELL_ROW_32_184
*1396 TAP_TAPCELL_ROW_32_185
*1397 TAP_TAPCELL_ROW_32_186
*1398 TAP_TAPCELL_ROW_33_187
*1399 TAP_TAPCELL_ROW_33_188
*1400 TAP_TAPCELL_ROW_33_189
*1401 TAP_TAPCELL_ROW_33_190
*1402 TAP_TAPCELL_ROW_33_191
*1403 TAP_TAPCELL_ROW_34_192
*1404 TAP_TAPCELL_ROW_34_193
*1405 TAP_TAPCELL_ROW_34_194
*1406 TAP_TAPCELL_ROW_34_195
*1407 TAP_TAPCELL_ROW_34_196
*1408 TAP_TAPCELL_ROW_34_197
*1409 TAP_TAPCELL_ROW_35_198
*1410 TAP_TAPCELL_ROW_35_199
*1411 TAP_TAPCELL_ROW_35_200
*1412 TAP_TAPCELL_ROW_35_201
*1413 TAP_TAPCELL_ROW_35_202
*1414 TAP_TAPCELL_ROW_36_203
*1415 TAP_TAPCELL_ROW_36_204
*1416 TAP_TAPCELL_ROW_36_205
*1417 TAP_TAPCELL_ROW_36_206
*1418 TAP_TAPCELL_ROW_36_207
*1419 TAP_TAPCELL_ROW_36_208
*1420 TAP_TAPCELL_ROW_37_209
*1421 TAP_TAPCELL_ROW_37_210
*1422 TAP_TAPCELL_ROW_37_211
*1423 TAP_TAPCELL_ROW_37_212
*1424 TAP_TAPCELL_ROW_37_213
*1425 TAP_TAPCELL_ROW_38_214
*1426 TAP_TAPCELL_ROW_38_215
*1427 TAP_TAPCELL_ROW_38_216
*1428 TAP_TAPCELL_ROW_38_217
*1429 TAP_TAPCELL_ROW_38_218
*1430 TAP_TAPCELL_ROW_38_219
*1431 TAP_TAPCELL_ROW_39_220
*1432 TAP_TAPCELL_ROW_39_221
*1433 TAP_TAPCELL_ROW_39_222
*1434 TAP_TAPCELL_ROW_39_223
*1435 TAP_TAPCELL_ROW_39_224
*1436 TAP_TAPCELL_ROW_40_225
*1437 TAP_TAPCELL_ROW_40_226
*1438 TAP_TAPCELL_ROW_40_227
*1439 TAP_TAPCELL_ROW_40_228
*1440 TAP_TAPCELL_ROW_40_229
*1441 TAP_TAPCELL_ROW_40_230
*1442 TAP_TAPCELL_ROW_41_231
*1443 TAP_TAPCELL_ROW_41_232
*1444 TAP_TAPCELL_ROW_41_233
*1445 TAP_TAPCELL_ROW_41_234
*1446 TAP_TAPCELL_ROW_41_235
*1447 TAP_TAPCELL_ROW_42_236
*1448 TAP_TAPCELL_ROW_42_237
*1449 TAP_TAPCELL_ROW_42_238
*1450 TAP_TAPCELL_ROW_42_239
*1451 TAP_TAPCELL_ROW_42_240
*1452 TAP_TAPCELL_ROW_42_241
*1453 TAP_TAPCELL_ROW_43_242
*1454 TAP_TAPCELL_ROW_43_243
*1455 TAP_TAPCELL_ROW_43_244
*1456 TAP_TAPCELL_ROW_43_245
*1457 TAP_TAPCELL_ROW_43_246
*1458 TAP_TAPCELL_ROW_44_247
*1459 TAP_TAPCELL_ROW_44_248
*1460 TAP_TAPCELL_ROW_44_249
*1461 TAP_TAPCELL_ROW_44_250
*1462 TAP_TAPCELL_ROW_44_251
*1463 TAP_TAPCELL_ROW_44_252
*1464 TAP_TAPCELL_ROW_45_253
*1465 TAP_TAPCELL_ROW_45_254
*1466 TAP_TAPCELL_ROW_45_255
*1467 TAP_TAPCELL_ROW_45_256
*1468 TAP_TAPCELL_ROW_45_257
*1469 TAP_TAPCELL_ROW_46_258
*1470 TAP_TAPCELL_ROW_46_259
*1471 TAP_TAPCELL_ROW_46_260
*1472 TAP_TAPCELL_ROW_46_261
*1473 TAP_TAPCELL_ROW_46_262
*1474 TAP_TAPCELL_ROW_46_263
*1475 TAP_TAPCELL_ROW_47_264
*1476 TAP_TAPCELL_ROW_47_265
*1477 TAP_TAPCELL_ROW_47_266
*1478 TAP_TAPCELL_ROW_47_267
*1479 TAP_TAPCELL_ROW_47_268
*1480 TAP_TAPCELL_ROW_48_269
*1481 TAP_TAPCELL_ROW_48_270
*1482 TAP_TAPCELL_ROW_48_271
*1483 TAP_TAPCELL_ROW_48_272
*1484 TAP_TAPCELL_ROW_48_273
*1485 TAP_TAPCELL_ROW_48_274
*1486 TAP_TAPCELL_ROW_49_275
*1487 TAP_TAPCELL_ROW_49_276
*1488 TAP_TAPCELL_ROW_49_277
*1489 TAP_TAPCELL_ROW_49_278
*1490 TAP_TAPCELL_ROW_49_279
*1491 TAP_TAPCELL_ROW_50_280
*1492 TAP_TAPCELL_ROW_50_281
*1493 TAP_TAPCELL_ROW_50_282
*1494 TAP_TAPCELL_ROW_50_283
*1495 TAP_TAPCELL_ROW_50_284
*1496 TAP_TAPCELL_ROW_50_285
*1497 TAP_TAPCELL_ROW_51_286
*1498 TAP_TAPCELL_ROW_51_287
*1499 TAP_TAPCELL_ROW_51_288
*1500 TAP_TAPCELL_ROW_51_289
*1501 TAP_TAPCELL_ROW_51_290
*1502 TAP_TAPCELL_ROW_52_291
*1503 TAP_TAPCELL_ROW_52_292
*1504 TAP_TAPCELL_ROW_52_293
*1505 TAP_TAPCELL_ROW_52_294
*1506 TAP_TAPCELL_ROW_52_295
*1507 TAP_TAPCELL_ROW_52_296
*1508 TAP_TAPCELL_ROW_53_297
*1509 TAP_TAPCELL_ROW_53_298
*1510 TAP_TAPCELL_ROW_53_299
*1511 TAP_TAPCELL_ROW_53_300
*1512 TAP_TAPCELL_ROW_53_301
*1513 TAP_TAPCELL_ROW_54_302
*1514 TAP_TAPCELL_ROW_54_303
*1515 TAP_TAPCELL_ROW_54_304
*1516 TAP_TAPCELL_ROW_54_305
*1517 TAP_TAPCELL_ROW_54_306
*1518 TAP_TAPCELL_ROW_54_307
*1519 TAP_TAPCELL_ROW_55_308
*1520 TAP_TAPCELL_ROW_55_309
*1521 TAP_TAPCELL_ROW_55_310
*1522 TAP_TAPCELL_ROW_55_311
*1523 TAP_TAPCELL_ROW_55_312
*1524 TAP_TAPCELL_ROW_56_313
*1525 TAP_TAPCELL_ROW_56_314
*1526 TAP_TAPCELL_ROW_56_315
*1527 TAP_TAPCELL_ROW_56_316
*1528 TAP_TAPCELL_ROW_56_317
*1529 TAP_TAPCELL_ROW_56_318
*1530 TAP_TAPCELL_ROW_56_319
*1531 TAP_TAPCELL_ROW_56_320
*1532 TAP_TAPCELL_ROW_56_321
*1533 TAP_TAPCELL_ROW_56_322
*1534 TAP_TAPCELL_ROW_56_323
*1535 input1
*1536 input2
*1537 input3
*1538 input4
*1539 input5
*1540 input6
*1541 input7
*1542 input8
*1543 input9
*1544 input10
*1545 output11
*1546 output12
*1547 output13
*1548 output14
*1549 output15
*1550 output16
*1551 output17
*1552 output18
*1553 output19
*1554 output20
*1555 output21
*1556 output22
*1557 output23
*1558 output24
*1559 output25
*1560 output26
*1561 place66
*1562 place68
*1563 place69
*1564 place70
*1565 place72
*1566 place54
*1567 place55
*1568 place60
*1569 place59
*1570 place61
*1571 place63
*1572 place65
*1573 place67
*1574 place73
*1575 clkbuf_0_clk
*1576 place47
*1577 place48
*1578 place49
*1579 place50
*1580 place51
*1581 place52
*1582 place53
*1583 place56
*1584 place57
*1585 place58
*1586 place62
*1587 place64
*1588 place71
*1589 clkbuf_2_0__f_clk
*1590 clkbuf_2_1__f_clk
*1591 clkbuf_2_2__f_clk
*1592 clkbuf_2_3__f_clk
*1593 clkload0
*1594 clkload1
*1595 clkload2
*1596 FILLER_0_0
*1597 FILLER_0_8
*1598 FILLER_0_16
*1599 FILLER_0_24
*1600 FILLER_0_28
*1601 FILLER_0_31
*1602 FILLER_0_39
*1603 FILLER_0_47
*1604 FILLER_0_55
*1605 FILLER_0_59
*1606 FILLER_0_61
*1607 FILLER_0_69
*1608 FILLER_0_77
*1609 FILLER_0_85
*1610 FILLER_0_89
*1611 FILLER_0_91
*1612 FILLER_0_99
*1613 FILLER_0_107
*1614 FILLER_0_115
*1615 FILLER_0_119
*1616 FILLER_0_121
*1617 FILLER_0_129
*1618 FILLER_0_137
*1619 FILLER_0_145
*1620 FILLER_0_149
*1621 FILLER_0_151
*1622 FILLER_0_159
*1623 FILLER_0_167
*1624 FILLER_0_175
*1625 FILLER_0_179
*1626 FILLER_0_181
*1627 FILLER_0_189
*1628 FILLER_0_197
*1629 FILLER_0_205
*1630 FILLER_0_209
*1631 FILLER_0_211
*1632 FILLER_0_219
*1633 FILLER_0_227
*1634 FILLER_0_235
*1635 FILLER_0_239
*1636 FILLER_0_241
*1637 FILLER_0_249
*1638 FILLER_0_257
*1639 FILLER_0_265
*1640 FILLER_0_269
*1641 FILLER_0_271
*1642 FILLER_0_279
*1643 FILLER_0_287
*1644 FILLER_0_295
*1645 FILLER_0_299
*1646 FILLER_0_301
*1647 FILLER_0_309
*1648 FILLER_0_317
*1649 FILLER_0_325
*1650 FILLER_0_329
*1651 FILLER_0_331
*1652 FILLER_0_339
*1653 FILLER_0_341
*1654 FILLER_1_0
*1655 FILLER_1_8
*1656 FILLER_1_16
*1657 FILLER_1_24
*1658 FILLER_1_32
*1659 FILLER_1_40
*1660 FILLER_1_48
*1661 FILLER_1_56
*1662 FILLER_1_61
*1663 FILLER_1_69
*1664 FILLER_1_77
*1665 FILLER_1_85
*1666 FILLER_1_93
*1667 FILLER_1_101
*1668 FILLER_1_109
*1669 FILLER_1_117
*1670 FILLER_1_119
*1671 FILLER_1_121
*1672 FILLER_1_129
*1673 FILLER_1_137
*1674 FILLER_1_145
*1675 FILLER_1_153
*1676 FILLER_1_161
*1677 FILLER_1_169
*1678 FILLER_1_177
*1679 FILLER_1_179
*1680 FILLER_1_181
*1681 FILLER_1_189
*1682 FILLER_1_197
*1683 FILLER_1_205
*1684 FILLER_1_213
*1685 FILLER_1_221
*1686 FILLER_1_229
*1687 FILLER_1_237
*1688 FILLER_1_239
*1689 FILLER_1_241
*1690 FILLER_1_249
*1691 FILLER_1_257
*1692 FILLER_1_265
*1693 FILLER_1_273
*1694 FILLER_1_281
*1695 FILLER_1_289
*1696 FILLER_1_297
*1697 FILLER_1_299
*1698 FILLER_1_301
*1699 FILLER_1_309
*1700 FILLER_1_317
*1701 FILLER_1_325
*1702 FILLER_1_333
*1703 FILLER_1_341
*1704 FILLER_2_0
*1705 FILLER_2_8
*1706 FILLER_2_16
*1707 FILLER_2_24
*1708 FILLER_2_28
*1709 FILLER_2_31
*1710 FILLER_2_39
*1711 FILLER_2_47
*1712 FILLER_2_55
*1713 FILLER_2_63
*1714 FILLER_2_71
*1715 FILLER_2_79
*1716 FILLER_2_87
*1717 FILLER_2_89
*1718 FILLER_2_91
*1719 FILLER_2_99
*1720 FILLER_2_107
*1721 FILLER_2_115
*1722 FILLER_2_123
*1723 FILLER_2_131
*1724 FILLER_2_139
*1725 FILLER_2_147
*1726 FILLER_2_149
*1727 FILLER_2_151
*1728 FILLER_2_159
*1729 FILLER_2_167
*1730 FILLER_2_175
*1731 FILLER_2_183
*1732 FILLER_2_191
*1733 FILLER_2_199
*1734 FILLER_2_207
*1735 FILLER_2_209
*1736 FILLER_2_211
*1737 FILLER_2_219
*1738 FILLER_2_227
*1739 FILLER_2_235
*1740 FILLER_2_243
*1741 FILLER_2_251
*1742 FILLER_2_259
*1743 FILLER_2_267
*1744 FILLER_2_269
*1745 FILLER_2_271
*1746 FILLER_2_279
*1747 FILLER_2_287
*1748 FILLER_2_295
*1749 FILLER_2_303
*1750 FILLER_2_311
*1751 FILLER_2_319
*1752 FILLER_2_327
*1753 FILLER_2_329
*1754 FILLER_2_331
*1755 FILLER_2_339
*1756 FILLER_2_341
*1757 FILLER_3_0
*1758 FILLER_3_8
*1759 FILLER_3_16
*1760 FILLER_3_24
*1761 FILLER_3_32
*1762 FILLER_3_40
*1763 FILLER_3_48
*1764 FILLER_3_56
*1765 FILLER_3_61
*1766 FILLER_3_69
*1767 FILLER_3_77
*1768 FILLER_3_85
*1769 FILLER_3_93
*1770 FILLER_3_101
*1771 FILLER_3_109
*1772 FILLER_3_117
*1773 FILLER_3_119
*1774 FILLER_3_121
*1775 FILLER_3_129
*1776 FILLER_3_137
*1777 FILLER_3_145
*1778 FILLER_3_153
*1779 FILLER_3_161
*1780 FILLER_3_169
*1781 FILLER_3_177
*1782 FILLER_3_179
*1783 FILLER_3_181
*1784 FILLER_3_189
*1785 FILLER_3_197
*1786 FILLER_3_205
*1787 FILLER_3_213
*1788 FILLER_3_221
*1789 FILLER_3_229
*1790 FILLER_3_237
*1791 FILLER_3_239
*1792 FILLER_3_241
*1793 FILLER_3_249
*1794 FILLER_3_257
*1795 FILLER_3_265
*1796 FILLER_3_273
*1797 FILLER_3_281
*1798 FILLER_3_289
*1799 FILLER_3_297
*1800 FILLER_3_299
*1801 FILLER_3_301
*1802 FILLER_3_309
*1803 FILLER_3_317
*1804 FILLER_3_325