*SPEF "ieee 1481-1999"
*DESIGN "shift_register_4bit"
*DATE "15:43:56 Monday April 27, 2026"
*VENDOR "The OpenROAD Project"
*PROGRAM "OpenROAD"
*VERSION "26Q2-339-g0504146ce6"
*DESIGN_FLOW "NAME_SCOPE LOCAL" "PIN_CAP NONE"
*DIVIDER /
*DELIMITER :
*BUS_DELIMITER []
*T_UNIT 1 NS
*C_UNIT 1 PF
*R_UNIT 1 OHM
*L_UNIT 1 HENRY

*NAME_MAP
*1 _00_
*2 _00_\[0\]
*3 _00_\[1\]
*4 _00_\[2\]
*5 _00_\[3\]
*6 clk
*7 _02_
*8 _03_
*9 _04_
*10 _05_
*11 _06_
*12 _07_
*13 _08_
*14 _09_
*15 net1
*16 net2
*17 net3
*18 net4
*19 net5
*20 net10
*21 net11
*22 net12
*23 net13
*24 net6
*25 net7
*26 net8
*27 net9
*30 data_in[0]
*31 data_in[1]
*32 data_in[2]
*33 data_in[3]
*34 load
*35 rst
*36 serial_in
*37 shift_en
*38 data_out[0]
*39 data_out[1]
*40 data_out[2]
*41 data_out[3]
*42 _10_
*43 input1
*44 _12_
*45 _13_
*46 _14_
*47 _15_
*48 _16_
*49 _17_
*50 _18_
*51 _19_
*52 _20_
*53 _21_
*54 _22_
*55 _23_
*56 data_out\[0\]\$_DFF_P_
*57 data_out\[1\]\$_DFF_P_
*58 data_out\[2\]\$_DFF_P_
*59 data_out\[3\]\$_DFF_P_
*60 TAP_TAPCELL_ROW_0_0
*61 TAP_TAPCELL_ROW_0_1
*62 TAP_TAPCELL_ROW_0_2
*63 TAP_TAPCELL_ROW_1_3
*64 TAP_TAPCELL_ROW_2_4
*65 TAP_TAPCELL_ROW_2_5
*66 TAP_TAPCELL_ROW_3_6
*67 TAP_TAPCELL_ROW_4_7
*68 TAP_TAPCELL_ROW_4_8
*69 TAP_TAPCELL_ROW_5_9
*70 TAP_TAPCELL_ROW_6_10
*71 TAP_TAPCELL_ROW_6_11
*72 TAP_TAPCELL_ROW_7_12
*73 TAP_TAPCELL_ROW_8_13
*74 TAP_TAPCELL_ROW_8_14
*75 TAP_TAPCELL_ROW_9_15
*76 TAP_TAPCELL_ROW_10_16
*77 TAP_TAPCELL_ROW_10_17
*78 TAP_TAPCELL_ROW_11_18
*79 TAP_TAPCELL_ROW_12_19
*80 TAP_TAPCELL_ROW_12_20
*81 TAP_TAPCELL_ROW_13_21
*82 TAP_TAPCELL_ROW_14_22
*83 TAP_TAPCELL_ROW_14_23
*84 TAP_TAPCELL_ROW_14_24
*85 input2
*86 input3
*87 input4
*88 input5
*89 input6
*90 input7
*91 input8
*92 input9
*93 output10
*94 output11
*95 output12
*96 output13
*97 FILLER_0_0
*98 FILLER_0_8
*99 FILLER_0_16
*100 FILLER_0_24
*101 FILLER_0_28
*102 FILLER_0_31
*103 FILLER_0_39
*104 FILLER_0_47
*105 FILLER_0_55
*106 FILLER_0_59
*107 FILLER_0_61
*108 FILLER_0_69
*109 FILLER_0_77
*110 FILLER_0_85
*111 FILLER_0_89
*112 FILLER_0_91
*113 FILLER_0_93
*114 FILLER_1_0
*115 FILLER_1_8
*116 FILLER_1_16
*117 FILLER_1_24
*118 FILLER_1_32
*119 FILLER_1_40
*120 FILLER_1_48
*121 FILLER_1_56
*122 FILLER_1_61
*123 FILLER_1_69
*124 FILLER_1_77
*125 FILLER_1_85
*126 FILLER_1_93
*127 FILLER_2_0
*128 FILLER_2_8
*129 FILLER_2_16
*130 FILLER_2_24
*131 FILLER_2_28
*132 FILLER_2_31
*133 FILLER_2_39
*134 FILLER_2_47
*135 FILLER_2_55
*136 FILLER_2_63
*137 FILLER_2_71
*138 FILLER_2_79
*139 FILLER_2_87
*140 FILLER_2_89
*141 FILLER_2_91
*142 FILLER_2_93
*143 FILLER_3_0
*144 FILLER_3_8
*145 FILLER_3_16
*146 FILLER_3_24
*147 FILLER_3_32
*148 FILLER_3_40
*149 FILLER_3_44
*150 FILLER_3_46
*151 FILLER_3_55
*152 FILLER_3_59
*153 FILLER_3_61
*154 FILLER_3_69
*155 FILLER_3_77
*156 FILLER_3_85
*157 FILLER_3_93
*158 FILLER_4_0
*159 FILLER_4_8
*160 FILLER_4_16
*161 FILLER_4_24
*162 FILLER_4_28
*163 FILLER_4_31
*164 FILLER_4_55
*165 FILLER_4_63
*166 FILLER_4_71
*167 FILLER_4_79
*168 FILLER_4_87
*169 FILLER_4_89
*170 FILLER_4_91
*171 FILLER_4_93
*172 FILLER_5_0
*173 FILLER_5_8
*174 FILLER_5_16
*175 FILLER_5_24
*176 FILLER_5_32
*177 FILLER_5_36
*178 FILLER_5_43
*179 FILLER_5_51
*180 FILLER_5_69
*181 FILLER_5_77
*182 FILLER_5_85
*183 FILLER_5_93
*184 FILLER_6_0
*185 FILLER_6_4
*186 FILLER_6_14
*187 FILLER_6_18
*188 FILLER_6_25
*189 FILLER_6_29
*190 FILLER_6_31
*191 FILLER_6_35
*192 FILLER_6_59
*193 FILLER_6_69
*194 FILLER_6_77
*195 FILLER_6_85
*196 FILLER_6_89
*197 FILLER_6_91
*198 FILLER_6_93
*199 FILLER_7_0
*200 FILLER_7_8
*201 FILLER_7_16
*202 FILLER_7_26
*203 FILLER_7_32
*204 FILLER_7_40
*205 FILLER_7_48
*206 FILLER_7_56
*207 FILLER_7_61
*208 FILLER_7_65
*209 FILLER_7_67
*210 FILLER_7_76
*211 FILLER_7_84
*212 FILLER_7_92
*213 FILLER_8_0
*214 FILLER_8_8
*215 FILLER_8_16
*216 FILLER_8_24
*217 FILLER_8_28
*218 FILLER_8_31
*219 FILLER_8_39
*220 FILLER_8_47
*221 FILLER_8_55
*222 FILLER_8_63
*223 FILLER_8_71
*224 FILLER_8_79
*225 FILLER_8_87
*226 FILLER_8_89
*227 FILLER_8_91
*228 FILLER_8_93
*229 FILLER_9_0
*230 FILLER_9_10
*231 FILLER_9_14
*232 FILLER_9_21
*233 FILLER_9_29
*234 FILLER_9_33
*235 FILLER_9_43
*236 FILLER_9_61
*237 FILLER_9_78
*238 FILLER_9_86
*239 FILLER_10_0
*240 FILLER_10_4
*241 FILLER_10_14
*242 FILLER_10_22
*243 FILLER_10_31
*244 FILLER_10_59
*245 FILLER_10_71
*246 FILLER_10_79
*247 FILLER_10_87
*248 FILLER_10_89
*249 FILLER_10_91
*250 FILLER_10_93
*251 FILLER_11_0
*252 FILLER_11_8
*253 FILLER_11_16
*254 FILLER_11_24
*255 FILLER_11_42
*256 FILLER_11_50
*257 FILLER_11_58
*258 FILLER_11_61
*259 FILLER_11_69
*260 FILLER_11_77
*261 FILLER_11_85
*262 FILLER_11_93
*263 FILLER_12_0
*264 FILLER_12_8
*265 FILLER_12_16
*266 FILLER_12_24
*267 FILLER_12_28
*268 FILLER_12_31
*269 FILLER_12_39
*270 FILLER_12_47
*271 FILLER_12_51
*272 FILLER_12_60
*273 FILLER_12_68
*274 FILLER_12_76
*275 FILLER_12_84
*276 FILLER_12_88
*277 FILLER_12_91
*278 FILLER_12_93
*279 FILLER_13_0
*280 FILLER_13_8
*281 FILLER_13_16
*282 FILLER_13_24
*283 FILLER_13_32
*284 FILLER_13_48
*285 FILLER_13_56
*286 FILLER_13_69
*287 FILLER_13_77
*288 FILLER_13_85
*289 FILLER_13_93
*290 FILLER_14_0
*291 FILLER_14_8
*292 FILLER_14_16
*293 FILLER_14_24
*294 FILLER_14_28
*295 FILLER_14_31
*296 FILLER_14_39
*297 FILLER_14_47
*298 FILLER_14_55
*299 FILLER_14_59
*300 FILLER_14_61
*301 FILLER_14_69
*302 FILLER_14_77
*303 FILLER_14_85
*304 FILLER_14_89
*305 FILLER_14_91
*306 FILLER_14_93

*PORTS
clk I
data_in[0] I
data_in[1] I
data_in[2] I
data_in[3] I
data_out[0] O
data_out[1] O
data_out[2] O
data_out[3] O
load I
rst I
serial_in I
shift_en I

*D_NET *1 0.00159142
*CONN
*I *55:A1 I *D sky130_fd_sc_hd__a211oi_1
*I *52:A1 I *D sky130_fd_sc_hd__a211oi_1
*I *46:A1 I *D sky130_fd_sc_hd__a211oi_1
*I *49:A1 I *D sky130_fd_sc_hd__a211oi_1
*I *42:Y O *D sky130_fd_sc_hd__inv_1
*CAP
1 *55:A1 0
2 *52:A1 9.85788e-05
3 *46:A1 0
4 *49:A1 5.17079e-05
5 *42:Y 7.89064e-05
6 *1:12 0.000448482
7 *1:10 0.000495352
8 *1:8 7.89064e-05
9 *49:A1 *49:B1 3.34802e-05
10 *52:A1 *25:10 2.82673e-05
11 *52:A1 *25:12 3.44412e-06
12 *1:8 *55:A2 3.60883e-05
13 *1:8 *55:B1 2.1159e-05
14 *1:12 *46:B1 2.99929e-05
15 *1:12 *49:B1 3.49272e-05
16 *1:12 *25:12 0.000152129
*RES
1 *42:Y *1:8 11.3832 
2 *1:8 *1:10 4.5 
3 *1:10 *1:12 11.3828 
4 *1:12 *49:A1 15.1659 
5 *1:12 *46:A1 13.7491 
6 *1:10 *52:A1 15.9964 
7 *1:8 *55:A1 9.24915 
*END

*D_NET *2 0.000316631
*CONN
*I *56:D I *D sky130_fd_sc_hd__dfxtp_1
*I *52:Y O *D sky130_fd_sc_hd__a211oi_1
*CAP
1 *56:D 6.14047e-05
2 *52:Y 6.14047e-05
3 *56:D *52:A2 0.000193821
*RES
1 *52:Y *56:D 20.6986 
*END

*D_NET *3 0.000416974
*CONN
*I *57:D I *D sky130_fd_sc_hd__dfxtp_1
*I *55:Y O *D sky130_fd_sc_hd__a211oi_1
*CAP
1 *57:D 0.000102132
2 *55:Y 0.000102132
3 *57:D *55:A2 0.00021271
*RES
1 *55:Y *57:D 21.2532 
*END

*D_NET *4 0.000315674
*CONN
*I *58:D I *D sky130_fd_sc_hd__dfxtp_1
*I *46:Y O *D sky130_fd_sc_hd__a211oi_1
*CAP
1 *58:D 5.57101e-05
2 *46:Y 5.57101e-05
3 *58:D *46:A2 0.000204254
*RES
1 *46:Y *58:D 20.6986 
*END

*D_NET *5 0.000324952
*CONN
*I *59:D I *D sky130_fd_sc_hd__dfxtp_1
*I *49:Y O *D sky130_fd_sc_hd__a211oi_1
*CAP
1 *59:D 0.000124545
2 *49:Y 0.000124545
3 *59:D *59:CLK 7.58631e-05
*RES
1 *49:Y *59:D 30.3838 
*END

*D_NET *6 0.00101344
*CONN
*P clk I
*I *43:A I *D sky130_fd_sc_hd__clkdlybuf4s50_1
*CAP
1 clk 0.000349433
2 *43:A 0.000349433
3 *43:A *90:A 0.000314578
*RES
1 clk *43:A 25.5622 
*END

*D_NET *7 0.00190277
*CONN
*I *46:A2 I *D sky130_fd_sc_hd__a211oi_1
*I *44:Y O *D sky130_fd_sc_hd__mux2i_1
*CAP
1 *46:A2 0.000734541
2 *44:Y 0.000734541
3 *46:A2 *44:A0 0.000166951
4 *46:A2 *44:A1 4.30017e-06
5 *46:A2 *49:B1 5.81861e-05
6 *58:D *46:A2 0.000204254
*RES
1 *44:Y *46:A2 34.0272 
*END

*D_NET *8 0.000912693
*CONN
*I *46:B1 I *D sky130_fd_sc_hd__a211oi_1
*I *45:Y O *D sky130_fd_sc_hd__nor2b_1
*CAP
1 *46:B1 0.000403814
2 *45:Y 0.000403814
3 *46:B1 *25:12 7.50722e-05
4 *1:12 *46:B1 2.99929e-05
*RES
1 *45:Y *46:B1 34.0753 
*END

*D_NET *9 0.00084119
*CONN
*I *49:A2 I *D sky130_fd_sc_hd__a211oi_1
*I *47:Y O *D sky130_fd_sc_hd__mux2i_1
*CAP
1 *49:A2 0.000420595
2 *47:Y 0.000420595
*RES
1 *47:Y *49:A2 28.1195 
*END

*D_NET *10 0.00125894
*CONN
*I *49:B1 I *D sky130_fd_sc_hd__a211oi_1
*I *48:Y O *D sky130_fd_sc_hd__nor2b_1
*CAP
1 *49:B1 0.000466063
2 *48:Y 0.000466063
3 *49:B1 *49:C1 0.000200221
4 *46:A2 *49:B1 5.81861e-05
5 *49:A1 *49:B1 3.34802e-05
6 *1:12 *49:B1 3.49272e-05
*RES
1 *48:Y *49:B1 40.0337 
*END

*D_NET *11 0.00207302
*CONN
*I *52:A2 I *D sky130_fd_sc_hd__a211oi_1
*I *50:Y O *D sky130_fd_sc_hd__mux2i_1
*CAP
1 *52:A2 0.000763634
2 *50:Y 0.000763634
3 *52:A2 *52:B1 6.72525e-05
4 *52:A2 *93:A 1.99728e-05
5 *52:A2 *20:23 0.000264707
6 *56:D *52:A2 0.000193821
*RES
1 *50:Y *52:A2 35.1364 
*END

*D_NET *12 0.000218941
*CONN
*I *52:B1 I *D sky130_fd_sc_hd__a211oi_1
*I *51:Y O *D sky130_fd_sc_hd__nor2b_1
*CAP
1 *52:B1 7.58441e-05
2 *51:Y 7.58441e-05
3 *52:A2 *52:B1 6.72525e-05
*RES
1 *51:Y *52:B1 20.8855 
*END

*D_NET *13 0.00179676
*CONN
*I *55:A2 I *D sky130_fd_sc_hd__a211oi_1
*I *53:Y O *D sky130_fd_sc_hd__mux2i_1
*CAP
1 *55:A2 0.000600783
2 *53:Y 0.000600783
3 *55:A2 *42:A 1.0759e-05
4 *55:A2 *55:B1 0.000160942
5 *55:A2 *21:8 0.000174692
6 *57:D *55:A2 0.00021271
7 *1:8 *55:A2 3.60883e-05
*RES
1 *53:Y *55:A2 35.1605 
*END

*D_NET *14 0.00166028
*CONN
*I *55:B1 I *D sky130_fd_sc_hd__a211oi_1
*I *54:Y O *D sky130_fd_sc_hd__nor2b_1
*CAP
1 *55:B1 0.000375982
2 *54:Y 0.000375982
3 *55:B1 *42:A 0.000726212
4 *55:A2 *55:B1 0.000160942
5 *1:8 *55:B1 2.1159e-05
*RES
1 *54:Y *55:B1 29.7592 
*END

*D_NET *15 0.00340558
*CONN
*I *56:CLK I *D sky130_fd_sc_hd__dfxtp_1
*I *57:CLK I *D sky130_fd_sc_hd__dfxtp_1
*I *58:CLK I *D sky130_fd_sc_hd__dfxtp_1
*I *59:CLK I *D sky130_fd_sc_hd__dfxtp_1
*I *43:X O *D sky130_fd_sc_hd__clkdlybuf4s50_1
*CAP
1 *56:CLK 0
2 *57:CLK 6.13112e-05
3 *58:CLK 0
4 *59:CLK 0.000414902
5 *43:X 0.000504701
6 *15:14 0.000728344
7 *15:12 0.000488585
8 *15:10 0.000618533
9 *59:CLK *47:A0 0
10 *59:CLK *49:C1 9.20254e-05
11 *59:CLK *25:12 5.22654e-06
12 *15:10 *90:A 0
13 *15:10 *25:8 5.36397e-05
14 *15:12 *25:8 5.22654e-06
15 *15:12 *25:10 7.71716e-05
16 *15:14 *25:10 1.11499e-05
17 *15:14 *25:12 0.000268904
18 *59:D *59:CLK 7.58631e-05
*RES
1 *43:X *15:10 25.0276 
2 *15:10 *15:12 3.28538 
3 *15:12 *15:14 10.3447 
4 *15:14 *59:CLK 23.1095 
5 *15:14 *58:CLK 13.7491 
6 *15:12 *57:CLK 15.2758 
7 *15:10 *56:CLK 13.7491 
*END

*D_NET *16 0.000332866
*CONN
*I *51:A I *D sky130_fd_sc_hd__nor2b_1
*I *85:X O *D sky130_fd_sc_hd__clkdlybuf4s50_1
*CAP
1 *51:A 0.000165227
2 *85:X 0.000165227
3 *51:A *90:A 2.41274e-06
4 *51:A *25:8 0
5 *51:A *25:10 0
*RES
1 *85:X *51:A 30.8842 
*END

*D_NET *17 0.000536893
*CONN
*I *54:A I *D sky130_fd_sc_hd__nor2b_1
*I *86:X O *D sky130_fd_sc_hd__clkdlybuf4s50_1
*CAP
1 *54:A 0.000239492
2 *86:X 0.000239492
3 *54:A *24:16 5.79081e-05
*RES
1 *86:X *54:A 24.2372 
*END

*D_NET *18 0.000341465
*CONN
*I *45:A I *D sky130_fd_sc_hd__nor2b_1
*I *87:X O *D sky130_fd_sc_hd__clkdlybuf4s50_1
*CAP
1 *45:A 0.000110252
2 *87:X 0.000110252
3 *45:A *45:B_N 0.000120962
*RES
1 *87:X *45:A 21.4642 
*END

*D_NET *19 0.000478984
*CONN
*I *48:A I *D sky130_fd_sc_hd__nor2b_1
*I *88:X O *D sky130_fd_sc_hd__clkdlybuf4s50_1
*CAP
1 *48:A 0.000206956
2 *88:X 0.000206956
3 *48:A *48:B_N 6.50727e-05
*RES
1 *88:X *48:A 23.6585 
*END

*D_NET *20 0.00175485
*CONN
*I *50:A0 I *D sky130_fd_sc_hd__mux2i_1
*I *53:A1 I *D sky130_fd_sc_hd__mux2i_1
*I *93:A I *D sky130_fd_sc_hd__clkdlybuf4s50_1
*I *56:Q O *D sky130_fd_sc_hd__dfxtp_1
*CAP
1 *50:A0 0
2 *53:A1 0.000182581
3 *93:A 0.000417384
4 *56:Q 0
5 *20:23 0.000311349
6 *20:4 0.000546153
7 *53:A1 *21:12 1.02917e-05
8 *93:A data_out[0] 2.41274e-06
9 *52:A2 *93:A 1.99728e-05
10 *52:A2 *20:23 0.000264707
*RES
1 *56:Q *20:4 9.24915 
2 *20:4 *93:A 27.4836 
3 *20:4 *20:23 4.34038 
4 *20:23 *53:A1 22.6459 
5 *20:23 *50:A0 9.24915 
*END

*D_NET *21 0.0015705
*CONN
*I *53:A0 I *D sky130_fd_sc_hd__mux2i_1
*I *94:A I *D sky130_fd_sc_hd__clkdlybuf4s50_1
*I *44:A1 I *D sky130_fd_sc_hd__mux2i_1
*I *57:Q O *D sky130_fd_sc_hd__dfxtp_1
*CAP
1 *53:A0 0
2 *94:A 0.000156257
3 *44:A1 0.000164381
4 *57:Q 8.85998e-05
5 *21:12 0.000602009
6 *21:8 0.000369972
7 *44:A1 *27:12 0
8 *21:12 *27:12 0
9 *46:A2 *44:A1 4.30017e-06
10 *53:A1 *21:12 1.02917e-05
11 *55:A2 *21:8 0.000174692
*RES
1 *57:Q *21:8 12.0704 
2 *21:8 *21:12 11.315 
3 *21:12 *44:A1 17.5503 
4 *21:12 *94:A 17.2456 
5 *21:8 *53:A0 9.24915 
*END

*D_NET *22 0.00106555
*CONN
*I *44:A0 I *D sky130_fd_sc_hd__mux2i_1
*I *95:A I *D sky130_fd_sc_hd__clkdlybuf4s50_1
*I *47:A1 I *D sky130_fd_sc_hd__mux2i_1
*I *58:Q O *D sky130_fd_sc_hd__dfxtp_1
*CAP
1 *44:A0 9.88755e-05
2 *95:A 6.05683e-05
3 *47:A1 0.000131098
4 *58:Q 0
5 *22:10 0.000292174
6 *22:6 0.000199383
7 *95:A *47:S 0.000116502
8 *22:10 *47:A0 0
9 *46:A2 *44:A0 0.000166951
*RES
1 *58:Q *22:6 13.7491 
2 *22:6 *22:10 6.74725 
3 *22:10 *47:A1 12.2151 
4 *22:10 *95:A 11.0817 
5 *22:6 *44:A0 16.5832 
*END

*D_NET *23 0.000976337
*CONN
*I *47:A0 I *D sky130_fd_sc_hd__mux2i_1
*I *96:A I *D sky130_fd_sc_hd__clkdlybuf4s50_1
*I *59:Q O *D sky130_fd_sc_hd__dfxtp_1
*CAP
1 *47:A0 0.00021204
2 *96:A 0.0002548
3 *59:Q 0.00046684
4 *96:A data_out[3] 4.26566e-05
5 *59:CLK *47:A0 0
6 *22:10 *47:A0 0
*RES
1 *59:Q *96:A 33.7966 
2 *59:Q *47:A0 31.4388 
*END

*D_NET *24 0.00430672
*CONN
*I *51:B_N I *D sky130_fd_sc_hd__nor2b_1
*I *54:B_N I *D sky130_fd_sc_hd__nor2b_1
*I *42:A I *D sky130_fd_sc_hd__inv_1
*I *45:B_N I *D sky130_fd_sc_hd__nor2b_1
*I *48:B_N I *D sky130_fd_sc_hd__nor2b_1
*I *89:X O *D sky130_fd_sc_hd__clkdlybuf4s50_1
*CAP
1 *51:B_N 0.000445547
2 *54:B_N 0
3 *42:A 0.000248535
4 *45:B_N 0.000172811
5 *48:B_N 0.000206015
6 *89:X 0.000126412
7 *24:20 0.000643345
8 *24:16 0.000597164
9 *24:12 0.000199063
10 *24:6 0.000686912
11 *45:A *45:B_N 0.000120962
12 *48:A *48:B_N 6.50727e-05
13 *54:A *24:16 5.79081e-05
14 *55:A2 *42:A 1.0759e-05
15 *55:B1 *42:A 0.000726212
*RES
1 *89:X *24:6 11.0817 
2 *24:6 *24:12 11.2472 
3 *24:12 *24:16 2.41132 
4 *24:16 *24:20 10.8998 
5 *24:20 *48:B_N 18.7961 
6 *24:20 *45:B_N 18.3548 
7 *24:16 *42:A 18.6955 
8 *24:12 *54:B_N 9.24915 
9 *24:6 *51:B_N 18.8703 
*END

*D_NET *25 0.00192374
*CONN
*I *52:C1 I *D sky130_fd_sc_hd__a211oi_1
*I *55:C1 I *D sky130_fd_sc_hd__a211oi_1
*I *46:C1 I *D sky130_fd_sc_hd__a211oi_1
*I *49:C1 I *D sky130_fd_sc_hd__a211oi_1
*I *90:X O *D sky130_fd_sc_hd__clkdlybuf4s50_1
*CAP
1 *52:C1 0
2 *55:C1 0
3 *46:C1 0
4 *49:C1 6.73904e-05
5 *90:X 7.18607e-05
6 *25:12 0.000302728
7 *25:10 0.000336381
8 *25:8 0.000172904
9 *46:B1 *25:12 7.50722e-05
10 *49:B1 *49:C1 0.000200221
11 *51:A *25:8 0
12 *51:A *25:10 0
13 *52:A1 *25:10 2.82673e-05
14 *52:A1 *25:12 3.44412e-06
15 *59:CLK *49:C1 9.20254e-05
16 *59:CLK *25:12 5.22654e-06
17 *1:12 *25:12 0.000152129
18 *15:10 *25:8 5.36397e-05
19 *15:12 *25:8 5.22654e-06
20 *15:12 *25:10 7.71716e-05
21 *15:14 *25:10 1.11499e-05
22 *15:14 *25:12 0.000268904
*RES
1 *90:X *25:8 15.9964 
2 *25:8 *25:10 3.493 
3 *25:10 *25:12 10.137 
4 *25:12 *49:C1 17.2421 
5 *25:12 *46:C1 13.7491 
6 *25:10 *55:C1 13.7491 
7 *25:8 *52:C1 13.7491 
*END

*D_NET *26 0.000882344
*CONN
*I *50:A1 I *D sky130_fd_sc_hd__mux2i_1
*I *91:X O *D sky130_fd_sc_hd__clkdlybuf4s50_1
*CAP
1 *50:A1 0.000438648
2 *91:X 0.000438648
3 *50:A1 *50:S 5.04829e-06
*RES
1 *91:X *50:A1 38.2222 
*END

*D_NET *27 0.00250252
*CONN
*I *53:S I *D sky130_fd_sc_hd__mux2i_1
*I *50:S I *D sky130_fd_sc_hd__mux2i_1
*I *44:S I *D sky130_fd_sc_hd__mux2i_1
*I *47:S I *D sky130_fd_sc_hd__mux2i_1
*I *92:X O *D sky130_fd_sc_hd__clkdlybuf4s50_1
*CAP
1 *53:S 0
2 *50:S 0.000186124
3 *44:S 0
4 *47:S 0.000344365
5 *92:X 0.000187942
6 *27:12 0.000774956
7 *27:10 0.000652602
8 *27:6 0.000223829
9 *50:S *92:A 1.11499e-05
10 *27:12 data_out[1] 0
11 *44:A1 *27:12 0
12 *50:A1 *50:S 5.04829e-06
13 *95:A *47:S 0.000116502
14 *21:12 *27:12 0
*RES
1 *92:X *27:6 13.8548 
2 *27:6 *27:10 5.2234 
3 *27:10 *27:12 10.5523 
4 *27:12 *47:S 21.9871 
5 *27:12 *44:S 13.7491 
6 *27:10 *50:S 18.1049 
7 *27:6 *53:S 9.24915 
*END

*D_NET *30 0.0014379
*CONN
*P data_in[0] I
*I *85:A I *D sky130_fd_sc_hd__clkdlybuf4s50_1
*CAP
1 data_in[0] 0.000718951
2 *85:A 0.000718951
*RES
1 data_in[0] *85:A 32.2063 
*END

*D_NET *31 0.000551661
*CONN
*P data_in[1] I
*I *86:A I *D sky130_fd_sc_hd__clkdlybuf4s50_1
*CAP
1 data_in[1] 0.00027583
2 *86:A 0.00027583
3 *86:A *87:A 0
4 *86:A *89:A 0
*RES
1 data_in[1] *86:A 18.3246 
*END

*D_NET *32 0.00137769
*CONN
*P data_in[2] I
*I *87:A I *D sky130_fd_sc_hd__clkdlybuf4s50_1
*CAP
1 data_in[2] 0.000668318
2 *87:A 0.000668318
3 *87:A *88:A 4.10489e-05
4 *86:A *87:A 0
*RES
1 data_in[2] *87:A 32.9159 
*END

*D_NET *33 0.000769359
*CONN
*P data_in[3] I
*I *88:A I *D sky130_fd_sc_hd__clkdlybuf4s50_1
*CAP
1 data_in[3] 0.000364155
2 *88:A 0.000364155
3 *87:A *88:A 4.10489e-05
*RES
1 data_in[3] *88:A 25.4301 
*END

*D_NET *34 0.000865523
*CONN
*P load I
*I *89:A I *D sky130_fd_sc_hd__clkdlybuf4s50_1
*CAP
1 load 0.000432761
2 *89:A 0.000432761
3 *86:A *89:A 0
*RES
1 load *89:A 27.0911 
*END

*D_NET *35 0.00173016
*CONN
*P rst I
*I *90:A I *D sky130_fd_sc_hd__clkdlybuf4s50_1
*CAP
1 rst 0.000706584
2 *90:A 0.000706584
3 *43:A *90:A 0.000314578
4 *51:A *90:A 2.41274e-06
5 *15:10 *90:A 0
*RES
1 rst *90:A 34.4247 
*END

*D_NET *36 0.00085044
*CONN
*P serial_in I
*I *91:A I *D sky130_fd_sc_hd__clkdlybuf4s50_1
*CAP
1 serial_in 0.00041122
2 *91:A 0.00041122
3 *91:A data_out[0] 2.79993e-05
*RES
1 serial_in *91:A 24.8388 
*END

*D_NET *37 0.00174773
*CONN
*P shift_en I
*I *92:A I *D sky130_fd_sc_hd__clkdlybuf4s50_1
*CAP
1 shift_en 0.000868288
2 *92:A 0.000868288
3 *92:A data_out[1] 0
4 *50:S *92:A 1.11499e-05
*RES
1 shift_en *92:A 19.9309 
*END

*D_NET *38 0.0015092
*CONN
*P data_out[0] O
*I *93:X O *D sky130_fd_sc_hd__clkdlybuf4s50_1
*CAP
1 data_out[0] 0.000739395
2 *93:X 0.000739395
3 *91:A data_out[0] 2.79993e-05
4 *93:A data_out[0] 2.41274e-06
*RES
1 *93:X data_out[0] 33.1933 
*END

*D_NET *39 0.00145943
*CONN
*P data_out[1] O
*I *94:X O *D sky130_fd_sc_hd__clkdlybuf4s50_1
*CAP
1 data_out[1] 0.000729715
2 *94:X 0.000729715
3 data_out[1] data_out[2] 0
4 *92:A data_out[1] 0
5 *27:12 data_out[1] 0
*RES
1 *94:X data_out[1] 19.5485 
*END

*D_NET *40 0.00190159
*CONN
*P data_out[2] O
*I *95:X O *D sky130_fd_sc_hd__clkdlybuf4s50_1
*CAP
1 data_out[2] 0.000950793
2 *95:X 0.000950793
3 data_out[1] data_out[2] 0
*RES
1 *95:X data_out[2] 20.0839 
*END

*D_NET *41 0.00157988
*CONN
*P data_out[3] O
*I *96:X O *D sky130_fd_sc_hd__clkdlybuf4s50_1
*CAP
1 data_out[3] 0.000768611
2 *96:X 0.000768611
3 *96:A data_out[3] 4.26566e-05
*RES
1 *96:X data_out[3] 32.485 
*END
