*SPEF "ieee 1481-1999"
*DESIGN "fp16_multiplier"
*DATE "15:50:13 Monday April 27, 2026"
*VENDOR "The OpenROAD Project"
*PROGRAM "OpenROAD"
*VERSION "26Q2-339-g0504146ce6"
*DESIGN_FLOW "NAME_SCOPE LOCAL" "PIN_CAP NONE"
*DIVIDER /
*DELIMITER :
*BUS_DELIMITER []
*T_UNIT 1 NS
*C_UNIT 1 PF
*R_UNIT 1 OHM
*L_UNIT 1 HENRY

*NAME_MAP
*1 _0000_
*2 _0001_
*3 _0002_
*4 _0004_
*5 _0006_
*6 _0011_
*7 _0013_
*8 _0014_
*9 _0021_
*10 _0023_
*11 _0030_
*12 _0035_
*13 _0036_
*14 _0038_
*15 _0039_
*16 _0040_
*17 _0041_
*18 _0042_
*19 _0044_
*20 _0046_
*21 _0051_
*22 _0053_
*23 _0054_
*24 _0061_
*25 _0064_
*26 _0065_
*27 _0066_
*28 _0072_
*29 _0073_
*30 _0074_
*31 _0078_
*32 _0081_
*33 _0082_
*34 _0083_
*35 _0085_
*36 _0090_
*37 _0092_
*38 _0093_
*39 _0095_
*40 _0096_
*41 _0098_
*42 _0104_
*43 _0108_
*44 _0112_
*45 _0114_
*46 _0115_
*47 _0116_
*48 _0117_
*49 _0119_
*50 _0124_
*51 _0126_
*52 _0127_
*53 _0129_
*54 _0131_
*55 _0133_
*56 _0136_
*57 _0137_
*58 _0138_
*59 _0142_
*60 _0145_
*61 _0149_
*62 _0150_
*63 _0151_
*64 _0152_
*65 _0153_
*66 _0154_
*67 _0156_
*68 _0160_
*69 _0161_
*70 _0162_
*71 _0166_
*72 _0171_
*73 _0172_
*74 _0178_
*75 _0179_
*76 _0182_
*77 _0183_
*78 _0189_
*79 _0194_
*80 _0195_
*81 _0196_
*82 _0197_
*83 _0200_
*84 _0203_
*85 _0204_
*86 _0205_
*87 _0206_
*88 _0207_
*89 _0208_
*90 _0213_
*91 _0214_
*92 _0216_
*93 _0219_
*94 _0220_
*95 _0226_
*96 _0227_
*97 _0228_
*98 _0229_
*99 _0234_
*100 _0238_
*101 _0240_
*102 _0241_
*103 _0243_
*104 _0247_
*105 _0250_
*106 _0253_
*107 _0254_
*108 _0256_
*109 _0261_
*110 _0262_
*111 _0264_
*112 _0266_
*113 _0268_
*114 _0272_
*115 _0275_
*116 _0278_
*117 _0279_
*118 _0282_
*119 _0283_
*120 _0285_
*121 _0291_
*122 _0292_
*123 _0293_
*124 _0297_
*125 _0300_
*126 _0307_
*127 _0310_
*128 _0316_
*129 _0317_
*130 _0318_
*131 _0325_
*132 _0327_
*133 _0334_
*134 _0336_
*135 _0339_
*136 _0342_
*137 _0345_
*138 _0349_
*139 _0352_
*140 _0355_
*141 _0356_
*142 _0357_
*143 _0358_
*144 _0360_
*145 _0361_
*146 _0363_
*147 _0365_
*148 _0366_
*149 _0368_
*150 _0374_
*151 _0376_
*152 _0383_
*153 _0388_
*154 _0391_
*155 _0397_
*156 _0400_
*157 _0401_
*158 _0405_
*159 _0410_
*160 _0412_
*161 _0413_
*162 _0414_
*163 _0420_
*164 _0422_
*165 _0423_
*166 _0424_
*167 _0430_
*168 _0433_
*169 _0437_
*170 _0440_
*171 _0446_
*172 _0447_
*173 _0449_
*174 _0455_
*175 _0456_
*176 _0461_
*177 _0462_
*178 _0463_
*179 _0464_
*180 _0473_
*181 _0477_
*182 _0479_
*183 _0483_
*184 _0484_
*185 _0486_
*186 _0493_
*187 _0498_
*188 _0502_
*189 _0503_
*190 _0504_
*191 _0511_
*192 _0512_
*193 _0514_
*194 _0519_
*195 _0525_
*196 _0526_
*197 _0532_
*198 _0534_
*199 _0542_
*200 _0554_
*201 _0556_
*202 _0558_
*203 _0564_
*204 _0565_
*205 _0566_
*206 _0568_
*207 _0569_
*208 _0572_
*209 _0575_
*210 _0576_
*211 _0578_
*212 _0579_
*213 _0582_
*214 _0583_
*215 _0585_
*216 _0587_
*217 _0604_
*218 _0607_
*219 _0609_
*220 _0610_
*221 _0613_
*222 _0615_
*223 _0618_
*224 _0622_
*225 _0625_
*226 _0631_
*227 _0641_
*228 _0678_
*229 _0684_
*230 _0689_
*231 _0693_
*232 _0697_
*233 _0702_
*234 _0703_
*235 _0710_
*236 _0711_
*237 _0715_
*238 _0720_
*239 _0721_
*240 _0723_
*241 _0730_
*242 _0731_
*243 _0733_
*244 _0734_
*245 _0735_
*246 _0738_
*247 _0744_
*248 _0746_
*249 _0747_
*250 _0748_
*251 _0751_
*252 _0754_
*253 _0759_
*254 _0762_
*255 _0783_
*256 _0784_
*257 _0786_
*258 _0793_
*259 _0794_
*260 _0795_
*261 _0796_
*262 _0797_
*263 _0798_
*264 _0799_
*265 _0800_
*266 _0801_
*267 _0802_
*268 _0803_
*269 _0804_
*270 _0805_
*271 _0806_
*272 _0807_
*273 _0808_
*274 _0809_
*275 _0810_
*276 _0811_
*277 _0812_
*278 _0813_
*279 _0814_
*280 _0815_
*281 _0816_
*282 _0817_
*283 _0818_
*284 _0819_
*285 _0820_
*286 _0821_
*287 _0822_
*288 _0823_
*289 _0824_
*290 _0825_
*291 _0826_
*292 _0827_
*293 _0828_
*294 _0829_
*295 _0830_
*296 _0831_
*297 _0832_
*298 _0833_
*299 _0834_
*300 _0835_
*301 _0836_
*302 _0837_
*303 _0838_
*304 _0839_
*305 _0840_
*306 _0841_
*307 _0842_
*308 _0843_
*309 _0844_
*310 _0845_
*311 _0846_
*312 _0847_
*313 _0848_
*314 _0849_
*315 _0850_
*316 _0851_
*317 _0852_
*318 _0853_
*319 _0854_
*320 _0855_
*321 _0856_
*322 _0857_
*323 _0858_
*324 _0859_
*325 _0860_
*326 _0861_
*327 _0862_
*328 _0863_
*329 _0864_
*330 _0865_
*331 _0866_
*332 _0867_
*333 _0868_
*334 _0869_
*335 _0870_
*336 _0871_
*337 _0872_
*338 _0873_
*339 _0874_
*340 _0875_
*341 _0876_
*342 _0877_
*343 _0878_
*344 _0879_
*345 _0880_
*346 _0881_
*347 _0882_
*348 _0883_
*349 _0884_
*350 _0885_
*351 _0886_
*352 _0887_
*353 _0888_
*354 _0889_
*355 _0890_
*356 _0891_
*357 _0892_
*358 _0893_
*359 _0894_
*360 _0895_
*361 _0896_
*362 _0897_
*363 _0898_
*364 _0899_
*365 _0900_
*366 _0901_
*367 _0902_
*368 _0903_
*369 _0904_
*370 _0905_
*371 _0906_
*372 _0907_
*373 _0908_
*374 _0909_
*375 _0910_
*376 _0911_
*377 _0912_
*378 _0913_
*379 _0914_
*380 _0915_
*381 _0916_
*382 _0917_
*383 _0918_
*384 _0919_
*385 _0920_
*386 _0921_
*387 _0922_
*388 _0923_
*389 _0924_
*390 _0925_
*391 _0926_
*392 _0927_
*393 _0928_
*394 _0929_
*395 _0930_
*396 _0931_
*397 _0932_
*398 _0933_
*399 _0934_
*400 _0935_
*401 _0936_
*402 _0937_
*403 _0938_
*404 _0939_
*405 _0940_
*406 _0941_
*407 _0942_
*408 _0943_
*409 _0944_
*410 _0945_
*411 _0946_
*412 _0947_
*413 _0948_
*414 _0949_
*415 _0950_
*416 _0951_
*417 _0952_
*418 _0953_
*419 _0954_
*420 _0955_
*421 _0956_
*422 _0957_
*423 _0958_
*424 _0959_
*425 _0960_
*426 _0961_
*427 _0962_
*428 _0963_
*429 _0964_
*430 _0965_
*431 _0966_
*432 _0967_
*433 _0968_
*434 _0969_
*435 _0970_
*436 _0971_
*437 _0972_
*438 _0973_
*439 _0974_
*440 _0975_
*441 _0976_
*442 b[3]
*443 b[2]
*444 _0979_
*445 b[1]
*446 b[15]
*447 _0982_
*448 _0983_
*449 _0984_
*450 _0985_
*451 b[14]
*452 _0987_
*453 _0988_
*454 _0989_
*455 _0990_
*456 _0991_
*457 b[13]
*458 b[12]
*459 _0994_
*460 _0995_
*461 _0996_
*462 _0997_
*463 b[11]
*464 _0999_
*465 _1000_
*466 _1001_
*467 _1002_
*468 _1003_
*469 _1004_
*470 _1005_
*471 _1006_
*472 _1007_
*473 b[10]
*474 _1009_
*475 _1010_
*476 _1011_
*477 _1012_
*478 _1013_
*479 _1014_
*480 _1015_
*481 _1016_
*482 _1017_
*483 _1018_
*484 _1019_
*485 _1020_
*486 _1021_
*487 _1022_
*488 _1023_
*489 b[0]
*490 _1025_
*491 a[9]
*492 a[8]
*493 a[7]
*494 a[6]
*495 _1030_
*496 _1031_
*497 _1032_
*498 _1033_
*499 a[5]
*500 a[4]
*501 a[3]
*502 _1037_
*503 _1038_
*504 _1039_
*505 _1040_
*506 a[2]
*507 a[1]
*508 a[15]
*509 a[14]
*510 _1045_
*511 _1046_
*512 _1047_
*513 _1048_
*514 _1049_
*515 _1050_
*516 _1051_
*517 _1052_
*518 _1053_
*519 _1054_
*520 _1055_
*521 _1056_
*522 _1057_
*523 a[13]
*524 a[12]
*525 a[11]
*526 _1061_
*527 _1062_
*528 _1063_
*529 _1064_
*530 _1065_
*531 _1066_
*532 _1067_
*533 _1068_
*534 a[10]
*535 _1070_
*536 _1071_
*537 a[0]
*538 _1073_
*539 _1074_
*540 _1075_
*541 _1076_
*542 _1077_
*543 _1078_
*544 _1079_
*545 _1080_
*546 _1081_
*547 _1082_
*548 _1083_
*549 _1084_
*550 _1085_
*551 _1086_
*552 _1087_
*553 _1088_
*554 _1089_
*555 _1090_
*556 _1091_
*557 _1092_
*558 _1093_
*559 _1094_
*560 _1095_
*561 _1096_
*562 _1097_
*563 _1098_
*564 _1099_
*565 _1100_
*566 _1101_
*567 _1102_
*568 _1103_
*569 _1104_
*570 _1105_
*571 _1106_
*572 _1107_
*573 _1108_
*574 _1109_
*575 _1110_
*576 _1111_
*577 _1112_
*578 _1113_
*579 _1114_
*580 _1115_
*581 _1116_
*582 _1117_
*583 _1118_
*584 _1119_
*585 _1120_
*586 _1121_
*587 _1122_
*588 _1123_
*589 _1124_
*590 _1125_
*591 _1126_
*592 _1127_
*593 _1128_
*594 _1129_
*595 _1130_
*596 _1131_
*597 _1132_
*598 _1133_
*599 _1134_
*600 _1135_
*601 _1136_
*602 _1137_
*603 _1138_
*604 _1139_
*605 _1140_
*606 _1141_
*607 _1142_
*608 _1143_
*609 _1144_
*610 _1145_
*611 _1146_
*612 _1147_
*613 _1148_
*614 _1149_
*615 _1150_
*616 _1151_
*617 _1152_
*618 _1153_
*619 _1154_
*620 _1155_
*621 _1156_
*622 _1157_
*623 _1158_
*624 _1159_
*625 _1160_
*626 _1161_
*627 _1162_
*628 _1163_
*629 _1164_
*630 _1165_
*631 _1166_
*632 _1167_
*633 _1168_
*634 _1169_
*635 net1
*636 net2
*637 net3
*638 net4
*639 net5
*640 net6
*641 net7
*642 net8
*643 net9
*644 net10
*645 net11
*646 net12
*647 net13
*648 net14
*649 net15
*650 net16
*651 net17
*652 net18
*653 net19
*654 net20
*655 net21
*656 net22
*657 net23
*658 net24
*659 net25
*660 net26
*661 net27
*662 net28
*663 net29
*664 net30
*665 net31
*666 net32
*667 net33
*668 net34
*669 net35
*670 net36
*671 net37
*672 net38
*673 net39
*674 net40
*675 net41
*676 net42
*677 net43
*678 net44
*679 net45
*680 net46
*681 net47
*682 net48
*685 b[4]
*686 b[5]
*687 b[6]
*688 b[7]
*689 b[8]
*690 b[9]
*691 result[0]
*692 result[10]
*693 result[11]
*694 result[12]
*695 result[13]
*696 result[14]
*697 result[15]
*698 result[1]
*699 result[2]
*700 result[3]
*701 result[4]
*702 result[5]
*703 result[6]
*704 result[7]
*705 result[8]
*706 result[9]
*707 net49
*708 net50
*709 _1170_
*710 _1171_
*711 _1172_
*712 _1173_
*713 _1174_
*714 _1175_
*715 _1176_
*716 _1177_
*717 _1178_
*718 _1179_
*719 _1180_
*720 _1181_
*721 _1182_
*722 _1183_
*723 _1184_
*724 _1185_
*725 _1186_
*726 input26
*727 input25
*728 _1189_
*729 _1190_
*730 _1191_
*731 input24
*732 input23
*733 _1194_
*734 _1195_
*735 _1196_
*736 _1197_
*737 _1198_
*738 _1199_
*739 _1200_
*740 input22
*741 _1202_
*742 _1203_
*743 _1204_
*744 _1205_
*745 _1206_
*746 input21
*747 input20
*748 _1209_
*749 _1210_
*750 _1211_
*751 _1212_
*752 input19
*753 _1214_
*754 _1215_
*755 _1216_
*756 _1217_
*757 _1218_
*758 _1219_
*759 _1220_
*760 _1221_
*761 _1222_
*762 input18
*763 _1224_
*764 _1225_
*765 _1226_
*766 _1227_
*767 _1228_
*768 _1229_
*769 _1230_
*770 _1231_
*771 _1232_
*772 _1233_
*773 _1234_
*774 _1235_
*775 _1236_
*776 _1237_
*777 _1238_
*778 _1239_
*779 input17
*780 _1241_
*781 _1242_
*782 input16
*783 input15
*784 _1245_
*785 _1246_
*786 input14
*787 _1248_
*788 _1249_
*789 _1250_
*790 input13
*791 _1252_
*792 _1253_
*793 _1254_
*794 _1255_
*795 _1256_
*796 _1257_
*797 _1258_
*798 _1259_
*799 _1260_
*800 _1261_
*801 input12
*802 input11
*803 _1264_
*804 _1265_
*805 _1266_
*806 input10
*807 _1268_
*808 _1269_
*809 _1270_
*810 _1271_
*811 _1272_
*812 _1273_
*813 _1274_
*814 _1275_
*815 _1276_
*816 _1277_
*817 _1278_
*818 _1279_
*819 _1280_
*820 _1281_
*821 input9
*822 _1283_
*823 _1284_
*824 _1285_
*825 input8
*826 _1287_
*827 _1288_
*828 input7
*829 _1290_
*830 input6
*831 _1292_
*832 _1293_
*833 _1294_
*834 _1295_
*835 _1296_
*836 _1297_
*837 _1298_
*838 _1299_
*839 _1300_
*840 _1301_
*841 _1302_
*842 _1303_
*843 _1304_
*844 _1305_
*845 _1306_
*846 _1307_
*847 _1308_
*848 _1309_
*849 _1310_
*850 _1311_
*851 _1312_
*852 _1313_
*853 _1314_
*854 _1315_
*855 _1316_
*856 _1317_
*857 _1318_
*858 input5
*859 _1320_
*860 input4
*861 _1322_
*862 _1323_
*863 _1324_
*864 _1325_
*865 input3
*866 _1327_
*867 _1328_
*868 _1329_
*869 _1330_
*870 _1331_
*871 _1332_
*872 _1333_
*873 _1334_
*874 _1335_
*875 _1336_
*876 _1337_
*877 _1338_
*878 _1339_
*879 _1340_
*880 _1341_
*881 _1342_
*882 _1343_
*883 _1344_
*884 _1345_
*885 _1346_
*886 _1347_
*887 _1348_
*888 _1349_
*889 _1350_
*890 _1351_
*891 _1352_
*892 _1353_
*893 _1354_
*894 _1355_
*895 _1356_
*896 _1357_
*897 _1358_
*898 _1359_
*899 _1360_
*900 _1361_
*901 _1362_
*902 _1363_
*903 _1364_
*904 _1365_
*905 _1366_
*906 _1367_
*907 _1368_
*908 _1369_
*909 _1370_
*910 _1371_
*911 _1372_
*912 _1373_
*913 _1374_
*914 _1375_
*915 _1376_
*916 _1377_
*917 input2
*918 _1379_
*919 _1380_
*920 _1381_
*921 _1382_
*922 _1383_
*923 _1384_
*924 _1385_
*925 _1386_
*926 input1
*927 _1388_
*928 _1389_
*929 _1390_
*930 _1391_
*931 _1392_
*932 _1393_
*933 _1394_
*934 _1395_
*935 _1396_
*936 _1397_
*937 _1398_
*938 _1399_
*939 _1400_
*940 _1401_
*941 _1402_
*942 _1403_
*943 _1404_
*944 _1405_
*945 _1406_
*946 _1407_
*947 _1408_
*948 _1409_
*949 _1410_
*950 _1411_
*951 _1412_
*952 _1413_
*953 _1414_
*954 _1415_
*955 _1416_
*956 _1417_
*957 _1418_
*958 _1419_
*959 _1420_
*960 _1421_
*961 _1422_
*962 _1423_
*963 _1424_
*964 _1425_
*965 _1426_
*966 _1427_
*967 _1428_
*968 _1429_
*969 _1430_
*970 _1431_
*971 _1432_
*972 _1433_
*973 _1434_
*974 _1435_
*975 _1436_
*976 _1437_
*977 _1438_
*978 _1439_
*979 _1440_
*980 _1441_
*981 _1442_
*982 _1443_
*983 _1444_
*984 _1445_
*985 _1446_
*986 _1447_
*987 _1448_
*988 _1449_
*989 _1450_
*990 _1451_
*991 _1452_
*992 _1453_
*993 _1454_
*994 _1455_
*995 _1456_
*996 _1457_
*997 _1458_
*998 _1459_
*999 _1460_
*1000 _1461_
*1001 _1462_
*1002 _1463_
*1003 _1464_
*1004 _1465_
*1005 _1466_
*1006 _1467_
*1007 _1468_
*1008 _1469_
*1009 _1470_
*1010 _1471_
*1011 _1472_
*1012 _1473_
*1013 _1474_
*1014 _1475_
*1015 _1476_
*1016 _1477_
*1017 _1478_
*1018 _1479_
*1019 _1480_
*1020 _1481_
*1021 _1482_
*1022 _1483_
*1023 _1484_
*1024 _1485_
*1025 _1486_
*1026 _1487_
*1027 _1488_
*1028 _1489_
*1029 _1490_
*1030 _1491_
*1031 _1492_
*1032 _1493_
*1033 _1494_
*1034 _1495_
*1035 _1496_
*1036 _1497_
*1037 _1498_
*1038 _1499_
*1039 _1500_
*1040 _1501_
*1041 _1502_
*1042 _1503_
*1043 _1504_
*1044 _1505_
*1045 _1506_
*1046 _1507_
*1047 _1508_
*1048 _1509_
*1049 _1510_
*1050 _1511_
*1051 _1512_
*1052 _1513_
*1053 _1514_
*1054 _1515_
*1055 _1516_
*1056 _1517_
*1057 _1518_
*1058 _1519_
*1059 _1520_
*1060 _1521_
*1061 _1522_
*1062 _1523_
*1063 _1524_
*1064 _1525_
*1065 _1526_
*1066 _1527_
*1067 _1528_
*1068 _1529_
*1069 _1530_
*1070 _1531_
*1071 _1532_
*1072 _1533_
*1073 _1534_
*1074 _1535_
*1075 _1536_
*1076 _1537_
*1077 _1538_
*1078 _1539_
*1079 _1540_
*1080 _1541_
*1081 _1542_
*1082 _1543_
*1083 _1544_
*1084 _1545_
*1085 _1546_
*1086 _1547_
*1087 _1548_
*1088 _1549_
*1089 _1550_
*1090 _1551_
*1091 _1552_
*1092 _1553_
*1093 _1554_
*1094 _1555_
*1095 _1556_
*1096 _1557_
*1097 _1558_
*1098 _1559_
*1099 _1560_
*1100 _1561_
*1101 _1562_
*1102 _1563_
*1103 _1564_
*1104 _1565_
*1105 _1566_
*1106 _1567_
*1107 _1568_
*1108 _1569_
*1109 _1570_
*1110 _1571_
*1111 _1572_
*1112 _1573_
*1113 _1574_
*1114 _1575_
*1115 _1576_
*1116 _1577_
*1117 _1578_
*1118 _1579_
*1119 _1580_
*1120 _1581_
*1121 _1582_
*1122 _1583_
*1123 _1584_
*1124 _1585_
*1125 _1586_
*1126 _1587_
*1127 _1588_
*1128 _1589_
*1129 _1590_
*1130 _1591_
*1131 _1592_
*1132 _1593_
*1133 _1594_
*1134 _1595_
*1135 _1596_
*1136 _1597_
*1137 _1598_
*1138 _1599_
*1139 _1600_
*1140 _1601_
*1141 _1602_
*1142 _1603_
*1143 _1604_
*1144 _1605_
*1145 _1606_
*1146 _1607_
*1147 _1608_
*1148 _1609_
*1149 _1610_
*1150 _1611_
*1151 _1612_
*1152 _1613_
*1153 _1614_
*1154 _1615_
*1155 _1616_
*1156 _1617_
*1157 _1618_
*1158 _1619_
*1159 _1620_
*1160 _1621_
*1161 _1622_
*1162 _1623_
*1163 _1624_
*1164 _1625_
*1165 _1626_
*1166 _1627_
*1167 _1628_
*1168 _1629_
*1169 _1630_
*1170 _1631_
*1171 _1632_
*1172 _1633_
*1173 _1634_
*1174 _1635_
*1175 _1636_
*1176 _1637_
*1177 _1638_
*1178 _1639_
*1179 _1640_
*1180 _1641_
*1181 _1642_
*1182 _1643_
*1183 _1644_
*1184 _1645_
*1185 _1646_
*1186 _1647_
*1187 _1648_
*1188 _1649_
*1189 _1650_
*1190 _1651_
*1191 _1652_
*1192 _1653_
*1193 _1654_
*1194 _1655_
*1195 _1656_
*1196 _1657_
*1197 _1658_
*1198 _1659_
*1199 _1660_
*1200 _1661_
*1201 _1662_
*1202 _1663_
*1203 _1664_
*1204 _1665_
*1205 _1666_
*1206 _1667_
*1207 _1668_
*1208 _1669_
*1209 _1670_
*1210 _1671_
*1211 TAP_TAPCELL_ROW_0_0
*1212 TAP_TAPCELL_ROW_0_1
*1213 TAP_TAPCELL_ROW_0_2
*1214 TAP_TAPCELL_ROW_0_3
*1215 TAP_TAPCELL_ROW_0_4
*1216 TAP_TAPCELL_ROW_0_5
*1217 TAP_TAPCELL_ROW_0_6
*1218 TAP_TAPCELL_ROW_0_7
*1219 TAP_TAPCELL_ROW_1_8
*1220 TAP_TAPCELL_ROW_1_9
*1221 TAP_TAPCELL_ROW_1_10
*1222 TAP_TAPCELL_ROW_1_11
*1223 TAP_TAPCELL_ROW_2_12
*1224 TAP_TAPCELL_ROW_2_13
*1225 TAP_TAPCELL_ROW_2_14
*1226 TAP_TAPCELL_ROW_2_15
*1227 TAP_TAPCELL_ROW_3_16
*1228 TAP_TAPCELL_ROW_3_17
*1229 TAP_TAPCELL_ROW_3_18
*1230 TAP_TAPCELL_ROW_3_19
*1231 TAP_TAPCELL_ROW_4_20
*1232 TAP_TAPCELL_ROW_4_21
*1233 TAP_TAPCELL_ROW_4_22
*1234 TAP_TAPCELL_ROW_4_23
*1235 TAP_TAPCELL_ROW_5_24
*1236 TAP_TAPCELL_ROW_5_25
*1237 TAP_TAPCELL_ROW_5_26
*1238 TAP_TAPCELL_ROW_5_27
*1239 TAP_TAPCELL_ROW_6_28
*1240 TAP_TAPCELL_ROW_6_29
*1241 TAP_TAPCELL_ROW_6_30
*1242 TAP_TAPCELL_ROW_6_31
*1243 TAP_TAPCELL_ROW_7_32
*1244 TAP_TAPCELL_ROW_7_33
*1245 TAP_TAPCELL_ROW_7_34
*1246 TAP_TAPCELL_ROW_7_35
*1247 TAP_TAPCELL_ROW_8_36
*1248 TAP_TAPCELL_ROW_8_37
*1249 TAP_TAPCELL_ROW_8_38
*1250 TAP_TAPCELL_ROW_8_39
*1251 TAP_TAPCELL_ROW_9_40
*1252 TAP_TAPCELL_ROW_9_41
*1253 TAP_TAPCELL_ROW_9_42
*1254 TAP_TAPCELL_ROW_9_43
*1255 TAP_TAPCELL_ROW_10_44
*1256 TAP_TAPCELL_ROW_10_45
*1257 TAP_TAPCELL_ROW_10_46
*1258 TAP_TAPCELL_ROW_10_47
*1259 TAP_TAPCELL_ROW_11_48
*1260 TAP_TAPCELL_ROW_11_49
*1261 TAP_TAPCELL_ROW_11_50
*1262 TAP_TAPCELL_ROW_11_51
*1263 TAP_TAPCELL_ROW_12_52
*1264 TAP_TAPCELL_ROW_12_53
*1265 TAP_TAPCELL_ROW_12_54
*1266 TAP_TAPCELL_ROW_12_55
*1267 TAP_TAPCELL_ROW_13_56
*1268 TAP_TAPCELL_ROW_13_57
*1269 TAP_TAPCELL_ROW_13_58
*1270 TAP_TAPCELL_ROW_13_59
*1271 TAP_TAPCELL_ROW_14_60
*1272 TAP_TAPCELL_ROW_14_61
*1273 TAP_TAPCELL_ROW_14_62
*1274 TAP_TAPCELL_ROW_14_63
*1275 TAP_TAPCELL_ROW_15_64
*1276 TAP_TAPCELL_ROW_15_65
*1277 TAP_TAPCELL_ROW_15_66
*1278 TAP_TAPCELL_ROW_15_67
*1279 TAP_TAPCELL_ROW_16_68
*1280 TAP_TAPCELL_ROW_16_69
*1281 TAP_TAPCELL_ROW_16_70
*1282 TAP_TAPCELL_ROW_16_71
*1283 TAP_TAPCELL_ROW_17_72
*1284 TAP_TAPCELL_ROW_17_73
*1285 TAP_TAPCELL_ROW_17_74
*1286 TAP_TAPCELL_ROW_17_75
*1287 TAP_TAPCELL_ROW_18_76
*1288 TAP_TAPCELL_ROW_18_77
*1289 TAP_TAPCELL_ROW_18_78
*1290 TAP_TAPCELL_ROW_18_79
*1291 TAP_TAPCELL_ROW_19_80
*1292 TAP_TAPCELL_ROW_19_81
*1293 TAP_TAPCELL_ROW_19_82
*1294 TAP_TAPCELL_ROW_19_83
*1295 TAP_TAPCELL_ROW_20_84
*1296 TAP_TAPCELL_ROW_20_85
*1297 TAP_TAPCELL_ROW_20_86
*1298 TAP_TAPCELL_ROW_20_87
*1299 TAP_TAPCELL_ROW_21_88
*1300 TAP_TAPCELL_ROW_21_89
*1301 TAP_TAPCELL_ROW_21_90
*1302 TAP_TAPCELL_ROW_21_91
*1303 TAP_TAPCELL_ROW_22_92
*1304 TAP_TAPCELL_ROW_22_93
*1305 TAP_TAPCELL_ROW_22_94
*1306 TAP_TAPCELL_ROW_22_95
*1307 TAP_TAPCELL_ROW_23_96
*1308 TAP_TAPCELL_ROW_23_97
*1309 TAP_TAPCELL_ROW_23_98
*1310 TAP_TAPCELL_ROW_23_99
*1311 TAP_TAPCELL_ROW_24_100
*1312 TAP_TAPCELL_ROW_24_101
*1313 TAP_TAPCELL_ROW_24_102
*1314 TAP_TAPCELL_ROW_24_103
*1315 TAP_TAPCELL_ROW_25_104
*1316 TAP_TAPCELL_ROW_25_105
*1317 TAP_TAPCELL_ROW_25_106
*1318 TAP_TAPCELL_ROW_25_107
*1319 TAP_TAPCELL_ROW_26_108
*1320 TAP_TAPCELL_ROW_26_109
*1321 TAP_TAPCELL_ROW_26_110
*1322 TAP_TAPCELL_ROW_26_111
*1323 TAP_TAPCELL_ROW_27_112
*1324 TAP_TAPCELL_ROW_27_113
*1325 TAP_TAPCELL_ROW_27_114
*1326 TAP_TAPCELL_ROW_27_115
*1327 TAP_TAPCELL_ROW_28_116
*1328 TAP_TAPCELL_ROW_28_117
*1329 TAP_TAPCELL_ROW_28_118
*1330 TAP_TAPCELL_ROW_28_119
*1331 TAP_TAPCELL_ROW_29_120
*1332 TAP_TAPCELL_ROW_29_121
*1333 TAP_TAPCELL_ROW_29_122
*1334 TAP_TAPCELL_ROW_29_123
*1335 TAP_TAPCELL_ROW_30_124
*1336 TAP_TAPCELL_ROW_30_125
*1337 TAP_TAPCELL_ROW_30_126
*1338 TAP_TAPCELL_ROW_30_127
*1339 TAP_TAPCELL_ROW_31_128
*1340 TAP_TAPCELL_ROW_31_129
*1341 TAP_TAPCELL_ROW_31_130
*1342 TAP_TAPCELL_ROW_31_131
*1343 TAP_TAPCELL_ROW_32_132
*1344 TAP_TAPCELL_ROW_32_133
*1345 TAP_TAPCELL_ROW_32_134
*1346 TAP_TAPCELL_ROW_32_135
*1347 TAP_TAPCELL_ROW_33_136
*1348 TAP_TAPCELL_ROW_33_137
*1349 TAP_TAPCELL_ROW_33_138
*1350 TAP_TAPCELL_ROW_33_139
*1351 TAP_TAPCELL_ROW_34_140
*1352 TAP_TAPCELL_ROW_34_141
*1353 TAP_TAPCELL_ROW_34_142
*1354 TAP_TAPCELL_ROW_34_143
*1355 TAP_TAPCELL_ROW_35_144
*1356 TAP_TAPCELL_ROW_35_145
*1357 TAP_TAPCELL_ROW_35_146
*1358 TAP_TAPCELL_ROW_35_147
*1359 TAP_TAPCELL_ROW_36_148
*1360 TAP_TAPCELL_ROW_36_149
*1361 TAP_TAPCELL_ROW_36_150
*1362 TAP_TAPCELL_ROW_36_151
*1363 TAP_TAPCELL_ROW_37_152
*1364 TAP_TAPCELL_ROW_37_153
*1365 TAP_TAPCELL_ROW_37_154
*1366 TAP_TAPCELL_ROW_37_155
*1367 TAP_TAPCELL_ROW_38_156
*1368 TAP_TAPCELL_ROW_38_157
*1369 TAP_TAPCELL_ROW_38_158
*1370 TAP_TAPCELL_ROW_38_159
*1371 TAP_TAPCELL_ROW_39_160
*1372 TAP_TAPCELL_ROW_39_161
*1373 TAP_TAPCELL_ROW_39_162
*1374 TAP_TAPCELL_ROW_39_163
*1375 TAP_TAPCELL_ROW_40_164
*1376 TAP_TAPCELL_ROW_40_165
*1377 TAP_TAPCELL_ROW_40_166
*1378 TAP_TAPCELL_ROW_40_167
*1379 TAP_TAPCELL_ROW_40_168
*1380 TAP_TAPCELL_ROW_40_169
*1381 TAP_TAPCELL_ROW_40_170
*1382 TAP_TAPCELL_ROW_40_171
*1383 input27
*1384 input28
*1385 input29
*1386 input30
*1387 input31
*1388 input32
*1389 output33
*1390 output34
*1391 output35
*1392 output36
*1393 output37
*1394 output38
*1395 output39
*1396 output40
*1397 output41
*1398 output42
*1399 output43
*1400 output44
*1401 output45
*1402 output46
*1403 output47
*1404 output48
*1405 place49
*1406 place50
*1407 FILLER_0_0
*1408 FILLER_0_8
*1409 FILLER_0_16
*1410 FILLER_0_24
*1411 FILLER_0_28
*1412 FILLER_0_31
*1413 FILLER_0_39
*1414 FILLER_0_48
*1415 FILLER_0_58
*1416 FILLER_0_61
*1417 FILLER_0_69
*1418 FILLER_0_77
*1419 FILLER_0_79
*1420 FILLER_0_88
*1421 FILLER_0_91
*1422 FILLER_0_95
*1423 FILLER_0_104
*1424 FILLER_0_112
*1425 FILLER_0_121
*1426 FILLER_0_149
*1427 FILLER_0_151
*1428 FILLER_0_155
*1429 FILLER_0_191
*1430 FILLER_0_199
*1431 FILLER_0_207
*1432 FILLER_0_209
*1433 FILLER_0_211
*1434 FILLER_0_219
*1435 FILLER_0_227
*1436 FILLER_0_235
*1437 FILLER_0_239
*1438 FILLER_0_241
*1439 FILLER_1_0
*1440 FILLER_1_8
*1441 FILLER_1_16
*1442 FILLER_1_24
*1443 FILLER_1_32
*1444 FILLER_1_40
*1445 FILLER_1_57
*1446 FILLER_1_59
*1447 FILLER_1_61
*1448 FILLER_1_65
*1449 FILLER_1_67
*1450 FILLER_1_76
*1451 FILLER_1_118
*1452 FILLER_1_121
*1453 FILLER_1_131
*1454 FILLER_1_135
*1455 FILLER_1_160
*1456 FILLER_1_172
*1457 FILLER_1_189
*1458 FILLER_1_197
*1459 FILLER_1_205
*1460 FILLER_1_213
*1461 FILLER_1_221
*1462 FILLER_1_229
*1463 FILLER_1_237
*1464 FILLER_1_239
*1465 FILLER_1_241
*1466 FILLER_2_0
*1467 FILLER_2_8
*1468 FILLER_2_16
*1469 FILLER_2_24
*1470 FILLER_2_28
*1471 FILLER_2_31
*1472 FILLER_2_35
*1473 FILLER_2_52
*1474 FILLER_2_60
*1475 FILLER_2_68
*1476 FILLER_2_72
*1477 FILLER_2_76
*1478 FILLER_2_84
*1479 FILLER_2_88
*1480 FILLER_2_91
*1481 FILLER_2_93
*1482 FILLER_2_97
*1483 FILLER_2_105
*1484 FILLER_2_113
*1485 FILLER_2_121
*1486 FILLER_2_125
*1487 FILLER_2_135
*1488 FILLER_2_139
*1489 FILLER_2_141
*1490 FILLER_2_151
*1491 FILLER_2_155
*1492 FILLER_2_165
*1493 FILLER_2_173
*1494 FILLER_2_181
*1495 FILLER_2_189
*1496 FILLER_2_197
*1497 FILLER_2_205
*1498 FILLER_2_209
*1499 FILLER_2_211
*1500 FILLER_2_219
*1501 FILLER_2_227
*1502 FILLER_2_235
*1503 FILLER_3_0
*1504 FILLER_3_4
*1505 FILLER_3_6
*1506 FILLER_3_20
*1507 FILLER_3_24
*1508 FILLER_3_56
*1509 FILLER_3_61
*1510 FILLER_3_65
*1511 FILLER_3_78
*1512 FILLER_3_86
*1513 FILLER_3_88
*1514 FILLER_3_105
*1515 FILLER_3_113
*1516 FILLER_3_121
*1517 FILLER_3_129
*1518 FILLER_3_137
*1519 FILLER_3_147
*1520 FILLER_3_152
*1521 FILLER_3_158
*1522 FILLER_3_170
*1523 FILLER_3_175
*1524 FILLER_3_181
*1525 FILLER_3_189
*1526 FILLER_3_197
*1527 FILLER_3_205
*1528 FILLER_3_213
*1529 FILLER_3_221
*1530 FILLER_3_229
*1531 FILLER_3_237
*1532 FILLER_3_239
*1533 FILLER_3_241
*1534 FILLER_4_0
*1535 FILLER_4_15
*1536 FILLER_4_19
*1537 FILLER_4_27
*1538 FILLER_4_29
*1539 FILLER_4_37
*1540 FILLER_4_45
*1541 FILLER_4_53
*1542 FILLER_4_61
*1543 FILLER_4_66
*1544 FILLER_4_74
*1545 FILLER_4_82
*1546 FILLER_4_91
*1547 FILLER_4_99
*1548 FILLER_4_104
*1549 FILLER_4_116
*1550 FILLER_4_120
*1551 FILLER_4_122
*1552 FILLER_4_130
*1553 FILLER_4_134
*1554 FILLER_4_138
*1555 FILLER_4_183
*1556 FILLER_4_185
*1557 FILLER_4_196
*1558 FILLER_4_204
*1559 FILLER_4_208
*1560 FILLER_4_211
*1561 FILLER_4_219
*1562 FILLER_4_227
*1563 FILLER_4_235
*1564 FILLER_5_0
*1565 FILLER_5_37
*1566 FILLER_5_41
*1567 FILLER_5_46
*1568 FILLER_5_54
*1569 FILLER_5_58
*1570 FILLER_5_61
*1571 FILLER_5_65
*1572 FILLER_5_76
*1573 FILLER_5_84
*1574 FILLER_5_92
*1575 FILLER_5_107
*1576 FILLER_5_118
*1577 FILLER_5_127
*1578 FILLER_5_132
*1579 FILLER_5_143
*1580 FILLER_5_151
*1581 FILLER_5_153
*1582 FILLER_5_164
*1583 FILLER_5_176
*1584 FILLER_5_187
*1585 FILLER_5_191
*1586 FILLER_5_203
*1587 FILLER_5_205
*1588 FILLER_5_216
*1589 FILLER_5_230
*1590 FILLER_5_238
*1591 FILLER_5_241
*1592 FILLER_6_0
*1593 FILLER_6_8
*1594 FILLER_6_15
*1595 FILLER_6_23
*1596 FILLER_6_27
*1597 FILLER_6_29
*1598 FILLER_6_31
*1599 FILLER_6_39
*1600 FILLER_6_43
*1601 FILLER_6_45
*1602 FILLER_6_54
*1603 FILLER_6_62
*1604 FILLER_6_66
*1605 FILLER_6_72
*1606 FILLER_6_76
*1607 FILLER_6_80
*1608 FILLER_6_88
*1609 FILLER_6_91
*1610 FILLER_6_99
*1611 FILLER_6_103
*1612 FILLER_6_105
*1613 FILLER_6_114
*1614 FILLER_6_122
*1615 FILLER_6_130
*1616 FILLER_6_134
*1617 FILLER_6_140
*1618 FILLER_6_142
*1619 FILLER_6_146
*1620 FILLER_6_151
*1621 FILLER_6_159
*1622 FILLER_6_182
*1623 FILLER_6_190
*1624 FILLER_6_240
*1625 FILLER_6_242
*1626 FILLER_7_0
*1627 FILLER_7_8
*1628 FILLER_7_12
*1629 FILLER_7_20
*1630 FILLER_7_28
*1631 FILLER_7_32
*1632 FILLER_7_40
*1633 FILLER_7_59
*1634 FILLER_7_61
*1635 FILLER_7_69
*1636 FILLER_7_89
*1637 FILLER_7_97
*1638 FILLER_7_105
*1639 FILLER_7_116
*1640 FILLER_7_121
*1641 FILLER_7_129
*1642 FILLER_7_138
*1643 FILLER_7_146
*1644 FILLER_7_150
*1645 FILLER_7_158
*1646 FILLER_7_162
*1647 FILLER_7_181
*1648 FILLER_7_189
*1649 FILLER_7_197
*1650 FILLER_7_201
*1651 FILLER_7_222
*1652 FILLER_7_239
*1653 FILLER_7_241
*1654 FILLER_8_0
*1655 FILLER_8_4
*1656 FILLER_8_26
*1657 FILLER_8_31
*1658 FILLER_8_39
*1659 FILLER_8_47
*1660 FILLER_8_53
*1661 FILLER_8_55
*1662 FILLER_8_61
*1663 FILLER_8_69
*1664 FILLER_8_77
*1665 FILLER_8_79
*1666 FILLER_8_91
*1667 FILLER_8_99
*1668 FILLER_8_107
*1669 FILLER_8_111
*1670 FILLER_8_137
*1671 FILLER_8_148
*1672 FILLER_8_151
*1673 FILLER_8_159
*1674 FILLER_8_170
*1675 FILLER_8_178
*1676 FILLER_8_186
*1677 FILLER_8_190
*1678 FILLER_8_194
*1679 FILLER_8_196
*1680 FILLER_8_200
*1681 FILLER_8_208
*1682 FILLER_8_211
*1683 FILLER_8_219
*1684 FILLER_8_239
*1685 FILLER_9_0
*1686 FILLER_9_2
*1687 FILLER_9_8
*1688 FILLER_9_12
*1689 FILLER_9_30
*1690 FILLER_9_38
*1691 FILLER_9_61
*1692 FILLER_9_69
*1693 FILLER_9_77
*1694 FILLER_9_85
*1695 FILLER_9_89
*1696 FILLER_9_97
*1697 FILLER_9_101
*1698 FILLER_9_121
*1699 FILLER_9_129
*1700 FILLER_9_160
*1701 FILLER_9_175
*1702 FILLER_9_179
*1703 FILLER_9_181
*1704 FILLER_9_201
*1705 FILLER_9_209
*1706 FILLER_9_217
*1707 FILLER_9_225
*1708 FILLER_9_229
*1709 FILLER_9_234
*1710 FILLER_9_238
*1711 FILLER_9_241
*1712 FILLER_10_0
*1713 FILLER_10_8
*1714 FILLER_10_12
*1715 FILLER_10_14
*1716 FILLER_10_27
*1717 FILLER_10_29
*1718 FILLER_10_31
*1719 FILLER_10_39
*1720 FILLER_10_47
*1721 FILLER_10_51
*1722 FILLER_10_62
*1723 FILLER_10_79
*1724 FILLER_10_87
*1725 FILLER_10_89
*1726 FILLER_10_104
*1727 FILLER_10_112
*1728 FILLER_10_120
*1729 FILLER_10_122
*1730 FILLER_10_130
*1731 FILLER_10_138
*1732 FILLER_10_146
*1733 FILLER_10_151
*1734 FILLER_10_159
*1735 FILLER_10_167
*1736 FILLER_10_169
*1737 FILLER_10_203
*1738 FILLER_10_207
*1739 FILLER_10_209
*1740 FILLER_10_211
*1741 FILLER_10_219
*1742 FILLER_10_223
*1743 FILLER_10_234
*1744 FILLER_10_242
*1745 FILLER_11_0
*1746 FILLER_11_4
*1747 FILLER_11_9
*1748 FILLER_11_39
*1749 FILLER_11_47
*1750 FILLER_11_56
*1751 FILLER_11_61
*1752 FILLER_11_69
*1753 FILLER_11_77
*1754 FILLER_11_85
*1755 FILLER_11_89
*1756 FILLER_11_97
*1757 FILLER_11_105
*1758 FILLER_11_113
*1759 FILLER_11_117
*1760 FILLER_11_119
*1761 FILLER_11_121
*1762 FILLER_11_132
*1763 FILLER_11_134
*1764 FILLER_11_143
*1765 FILLER_11_151
*1766 FILLER_11_159
*1767 FILLER_11_175
*1768 FILLER_11_179
*1769 FILLER_11_181
*1770 FILLER_11_185
*1771 FILLER_11_187
*1772 FILLER_11_193
*1773 FILLER_11_200
*1774 FILLER_11_202
*1775 FILLER_11_237
*1776 FILLER_11_239
*1777 FILLER_11_241
*1778 FILLER_12_0
*1779 FILLER_12_8
*1780 FILLER_12_12
*1781 FILLER_12_34
*1782 FILLER_12_42
*1783 FILLER_12_75
*1784 FILLER_12_83
*1785 FILLER_12_104
*1786 FILLER_12_110
*1787 FILLER_12_114
*1788 FILLER_12_122
*1789 FILLER_12_126
*1790 FILLER_12_141
*1791 FILLER_12_149
*1792 FILLER_12_156
*1793 FILLER_12_164
*1794 FILLER_12_179
*1795 FILLER_12_187
*1796 FILLER_12_191
*1797 FILLER_12_203
*1798 FILLER_12_207
*1799 FILLER_12_209
*1800 FILLER_12_211
*1801 FILLER_12_239
*1802 FILLER_13_0
*1803 FILLER_13_2
*1804 FILLER_13_19
*1805 FILLER_13_37
*1806 FILLER_13_45
*1807 FILLER_13_53
*1808 FILLER_13_57
*1809 FILLER_13_59
*1810 FILLER_13_61
*1811 FILLER_13_69
*1812 FILLER_13_71
*1813 FILLER_13_79
*1814 FILLER_13_81
*1815 FILLER_13_85
*1816 FILLER_13_90
*1817 FILLER_13_98
*1818 FILLER_13_106
*1819 FILLER_13_114
*1820 FILLER_13_118
*1821 FILLER_13_121
*1822 FILLER_13_129
*1823 FILLER_13_137
*1824 FILLER_13_145
*1825 FILLER_13_157
*1826 FILLER_13_165
*1827 FILLER_13_173
*1828 FILLER_13_177
*1829 FILLER_13_179
*1830 FILLER_13_181
*1831 FILLER_13_189
*1832 FILLER_13_197
*1833 FILLER_13_210
*1834 FILLER_13_212
*1835 FILLER_13_223
*1836 FILLER_13_241
*1837 FILLER_14_0
*1838 FILLER_14_8
*1839 FILLER_14_13
*1840 FILLER_14_34
*1841 FILLER_14_42
*1842 FILLER_14_44
*1843 FILLER_14_68
*1844 FILLER_14_76
*1845 FILLER_14_84
*1846 FILLER_14_88
*1847 FILLER_14_91
*1848 FILLER_14_99
*1849 FILLER_14_107
*1850 FILLER_14_115
*1851 FILLER_14_123
*1852 FILLER_14_131
*1853 FILLER_14_139
*1854 FILLER_14_147
*1855 FILLER_14_149
*1856 FILLER_14_151
*1857 FILLER_14_157
*1858 FILLER_14_165
*1859 FILLER_14_176
*1860 FILLER_14_188
*1861 FILLER_14_196
*1862 FILLER_14_204
*1863 FILLER_14_208
*1864 FILLER_14_211
*1865 FILLER_14_219
*1866 FILLER_14_223
*1867 FILLER_14_230
*1868 FILLER_14_238
*1869 FILLER_14_242
*1870 FILLER_15_0
*1871 FILLER_15_5
*1872 FILLER_15_9
*1873 FILLER_15_14
*1874 FILLER_15_27
*1875 FILLER_15_35
*1876 FILLER_15_43
*1877 FILLER_15_59
*1878 FILLER_15_61
*1879 FILLER_15_65
*1880 FILLER_15_67
*1881 FILLER_15_72
*1882 FILLER_15_76
*1883 FILLER_15_86
*1884 FILLER_15_94
*1885 FILLER_15_103
*1886 FILLER_15_111
*1887 FILLER_15_119
*1888 FILLER_15_121
*1889 FILLER_15_125
*1890 FILLER_15_136
*1891 FILLER_15_141
*1892 FILLER_15_153
*1893 FILLER_15_155
*1894 FILLER_15_161
*1895 FILLER_15_170
*1896 FILLER_15_174
*1897 FILLER_15_178
*1898 FILLER_15_181
*1899 FILLER_15_185
*1900 FILLER_15_202
*1901 FILLER_15_210
*1902 FILLER_15_218
*1903 FILLER_15_220
*1904 FILLER_15_224
*1905 FILLER_15_236
*1906 FILLER_15_241
*1907 FILLER_16_0
*1908 FILLER_16_8
*1909 FILLER_16_29
*1910 FILLER_16_31
*1911 FILLER_16_39
*1912 FILLER_16_43
*1913 FILLER_16_63
*1914 FILLER_16_67
*1915 FILLER_16_76
*1916 FILLER_16_87
*1917 FILLER_16_89
*1918 FILLER_16_114
*1919 FILLER_16_145
*1920 FILLER_16_149
*1921 FILLER_16_151
*1922 FILLER_16_153
*1923 FILLER_16_159
*1924 FILLER_16_167
*1925 FILLER_16_175
*1926 FILLER_16_183
*1927 FILLER_16_211
*1928 FILLER_16_215
*1929 FILLER_16_235
*1930 FILLER_17_16